<?xml version="1.0" encoding="UTF-8"?>

<!-- generated on 2022-09-24 17:57:58 by Eclipse SUMO netedit Version 1.14.1
<configuration xmlns:xsi="http://www.w3.org/2001/XMLSchema-instance" xsi:noNamespaceSchemaLocation="http://sumo.dlr.de/xsd/netconvertConfiguration.xsd">

    <input>
        <sumo-net-file value="/home/frederic/Desktop/Sumo%20Project%201/5x5/networks/base.net.xml"/>
    </input>

    <output>
        <output-file value="/home/frederic/Desktop/Sumo%20Project%201/5x5/networks/base.net.xml"/>
    </output>

    <processing>
        <geometry.min-radius.fix.railways value="false"/>
        <geometry.max-grade.fix value="false"/>
        <offset.disable-normalization value="true"/>
        <lefthand value="false"/>
    </processing>

    <junctions>
        <no-turnarounds value="true"/>
        <junctions.corner-detail value="5"/>
        <junctions.limit-turn-speed value="5.5"/>
        <rectangular-lane-cut value="false"/>
    </junctions>

    <pedestrian>
        <walkingareas value="false"/>
    </pedestrian>

</configuration>
-->

<net version="1.9" junctionCornerDetail="5" limitTurnSpeed="5.50" xmlns:xsi="http://www.w3.org/2001/XMLSchema-instance" xsi:noNamespaceSchemaLocation="http://sumo.dlr.de/xsd/net_file.xsd">

    <location netOffset="0.00,0.00" convBoundary="-125.00,-250.00,875.10,875.10" origBoundary="-10000000000.00,-10000000000.00,10000000000.00,10000000000.00" projParameter="!"/>

    <edge id=":J13_0" function="internal">
        <lane id=":J13_0_0" index="0" speed="13.89" length="14.40" shape="123.40,132.20 123.40,117.80"/>
    </edge>
    <edge id=":J13_1" function="internal">
        <lane id=":J13_1_0" index="0" speed="13.89" length="14.50" shape="132.30,126.60 117.80,126.60"/>
    </edge>
    <edge id=":J13_2" function="internal">
        <lane id=":J13_2_0" index="0" speed="13.89" length="14.40" shape="126.70,117.80 126.61,132.20"/>
    </edge>
    <edge id=":J13_3" function="internal">
        <lane id=":J13_3_0" index="0" speed="13.89" length="14.50" shape="117.80,123.40 132.30,123.41"/>
    </edge>
    <edge id=":J14_0" function="internal">
        <lane id=":J14_0_0" index="0" speed="13.89" length="14.40" shape="123.40,257.20 123.40,242.80"/>
    </edge>
    <edge id=":J14_1" function="internal">
        <lane id=":J14_1_0" index="0" speed="13.89" length="14.49" shape="132.29,251.60 117.80,251.60"/>
    </edge>
    <edge id=":J14_2" function="internal">
        <lane id=":J14_2_0" index="0" speed="13.89" length="14.40" shape="126.69,242.80 126.61,257.20"/>
    </edge>
    <edge id=":J14_3" function="internal">
        <lane id=":J14_3_0" index="0" speed="13.89" length="14.50" shape="117.80,248.40 132.30,248.41"/>
    </edge>
    <edge id=":J15_0" function="internal">
        <lane id=":J15_0_0" index="0" speed="13.89" length="14.40" shape="123.40,382.20 123.40,367.80"/>
    </edge>
    <edge id=":J15_1" function="internal">
        <lane id=":J15_1_0" index="0" speed="13.89" length="14.49" shape="132.29,376.60 117.80,376.60"/>
    </edge>
    <edge id=":J15_2" function="internal">
        <lane id=":J15_2_0" index="0" speed="13.89" length="14.40" shape="126.69,367.80 126.61,382.20"/>
    </edge>
    <edge id=":J15_3" function="internal">
        <lane id=":J15_3_0" index="0" speed="13.89" length="14.50" shape="117.80,373.40 132.30,373.41"/>
    </edge>
    <edge id=":J16_0" function="internal">
        <lane id=":J16_0_0" index="0" speed="13.89" length="14.40" shape="123.40,507.20 123.40,492.80"/>
    </edge>
    <edge id=":J16_1" function="internal">
        <lane id=":J16_1_0" index="0" speed="13.89" length="14.49" shape="132.29,501.60 117.80,501.60"/>
    </edge>
    <edge id=":J16_2" function="internal">
        <lane id=":J16_2_0" index="0" speed="13.89" length="14.40" shape="126.69,492.80 126.61,507.20"/>
    </edge>
    <edge id=":J16_3" function="internal">
        <lane id=":J16_3_0" index="0" speed="13.89" length="14.50" shape="117.80,498.40 132.30,498.41"/>
    </edge>
    <edge id=":J17_0" function="internal">
        <lane id=":J17_0_0" index="0" speed="13.89" length="14.40" shape="123.40,632.20 123.40,617.80"/>
    </edge>
    <edge id=":J17_1" function="internal">
        <lane id=":J17_1_0" index="0" speed="13.89" length="14.49" shape="132.29,626.60 117.80,626.60"/>
    </edge>
    <edge id=":J17_2" function="internal">
        <lane id=":J17_2_0" index="0" speed="13.89" length="14.40" shape="126.69,617.80 126.60,632.20"/>
    </edge>
    <edge id=":J17_3" function="internal">
        <lane id=":J17_3_0" index="0" speed="13.89" length="14.50" shape="117.80,623.40 132.30,623.41"/>
    </edge>
    <edge id=":J20_0" function="internal">
        <lane id=":J20_0_0" index="0" speed="13.89" length="14.40" shape="248.40,132.20 248.40,117.80"/>
    </edge>
    <edge id=":J20_1" function="internal">
        <lane id=":J20_1_0" index="0" speed="13.89" length="14.50" shape="257.30,126.60 242.80,126.60"/>
    </edge>
    <edge id=":J20_2" function="internal">
        <lane id=":J20_2_0" index="0" speed="13.89" length="14.40" shape="251.70,117.80 251.61,132.20"/>
    </edge>
    <edge id=":J20_3" function="internal">
        <lane id=":J20_3_0" index="0" speed="13.89" length="14.50" shape="242.80,123.49 257.30,123.41"/>
    </edge>
    <edge id=":J21_0" function="internal">
        <lane id=":J21_0_0" index="0" speed="13.89" length="14.40" shape="248.40,257.20 248.40,242.80"/>
    </edge>
    <edge id=":J21_1" function="internal">
        <lane id=":J21_1_0" index="0" speed="13.89" length="14.49" shape="257.29,251.60 242.80,251.60"/>
    </edge>
    <edge id=":J21_2" function="internal">
        <lane id=":J21_2_0" index="0" speed="13.89" length="14.40" shape="251.69,242.80 251.61,257.20"/>
    </edge>
    <edge id=":J21_3" function="internal">
        <lane id=":J21_3_0" index="0" speed="13.89" length="14.50" shape="242.80,248.49 257.30,248.41"/>
    </edge>
    <edge id=":J22_0" function="internal">
        <lane id=":J22_0_0" index="0" speed="13.89" length="14.40" shape="248.40,382.20 248.40,367.80"/>
    </edge>
    <edge id=":J22_1" function="internal">
        <lane id=":J22_1_0" index="0" speed="13.89" length="14.49" shape="257.29,376.60 242.80,376.60"/>
    </edge>
    <edge id=":J22_2" function="internal">
        <lane id=":J22_2_0" index="0" speed="13.89" length="14.40" shape="251.69,367.80 251.61,382.20"/>
    </edge>
    <edge id=":J22_3" function="internal">
        <lane id=":J22_3_0" index="0" speed="13.89" length="14.50" shape="242.80,373.49 257.30,373.41"/>
    </edge>
    <edge id=":J23_0" function="internal">
        <lane id=":J23_0_0" index="0" speed="13.89" length="14.40" shape="248.40,507.20 248.40,492.80"/>
    </edge>
    <edge id=":J23_1" function="internal">
        <lane id=":J23_1_0" index="0" speed="13.89" length="14.49" shape="257.29,501.60 242.80,501.60"/>
    </edge>
    <edge id=":J23_2" function="internal">
        <lane id=":J23_2_0" index="0" speed="13.89" length="14.40" shape="251.69,492.80 251.61,507.20"/>
    </edge>
    <edge id=":J23_3" function="internal">
        <lane id=":J23_3_0" index="0" speed="13.89" length="14.50" shape="242.80,498.49 257.30,498.41"/>
    </edge>
    <edge id=":J24_0" function="internal">
        <lane id=":J24_0_0" index="0" speed="13.89" length="14.40" shape="248.40,632.20 248.40,617.80"/>
    </edge>
    <edge id=":J24_1" function="internal">
        <lane id=":J24_1_0" index="0" speed="13.89" length="14.49" shape="257.29,626.60 242.80,626.60"/>
    </edge>
    <edge id=":J24_2" function="internal">
        <lane id=":J24_2_0" index="0" speed="13.89" length="14.40" shape="251.69,617.80 251.60,632.20"/>
    </edge>
    <edge id=":J24_3" function="internal">
        <lane id=":J24_3_0" index="0" speed="13.89" length="14.50" shape="242.80,623.49 257.30,623.41"/>
    </edge>
    <edge id=":J27_0" function="internal">
        <lane id=":J27_0_0" index="0" speed="13.89" length="14.40" shape="373.40,132.20 373.40,117.80"/>
    </edge>
    <edge id=":J27_1" function="internal">
        <lane id=":J27_1_0" index="0" speed="13.89" length="14.50" shape="382.30,126.60 367.80,126.60"/>
    </edge>
    <edge id=":J27_2" function="internal">
        <lane id=":J27_2_0" index="0" speed="13.89" length="14.40" shape="376.70,117.80 376.61,132.20"/>
    </edge>
    <edge id=":J27_3" function="internal">
        <lane id=":J27_3_0" index="0" speed="13.89" length="14.50" shape="367.80,123.49 382.30,123.41"/>
    </edge>
    <edge id=":J28_0" function="internal">
        <lane id=":J28_0_0" index="0" speed="13.89" length="14.40" shape="373.40,257.20 373.40,242.80"/>
    </edge>
    <edge id=":J28_1" function="internal">
        <lane id=":J28_1_0" index="0" speed="13.89" length="14.49" shape="382.29,251.60 367.80,251.60"/>
    </edge>
    <edge id=":J28_2" function="internal">
        <lane id=":J28_2_0" index="0" speed="13.89" length="14.40" shape="376.69,242.80 376.61,257.20"/>
    </edge>
    <edge id=":J28_3" function="internal">
        <lane id=":J28_3_0" index="0" speed="13.89" length="14.50" shape="367.80,248.49 382.30,248.41"/>
    </edge>
    <edge id=":J29_0" function="internal">
        <lane id=":J29_0_0" index="0" speed="13.89" length="14.40" shape="373.40,382.20 373.40,367.80"/>
    </edge>
    <edge id=":J29_1" function="internal">
        <lane id=":J29_1_0" index="0" speed="13.89" length="14.49" shape="382.29,376.60 367.80,376.60"/>
    </edge>
    <edge id=":J29_2" function="internal">
        <lane id=":J29_2_0" index="0" speed="13.89" length="14.40" shape="376.69,367.80 376.61,382.20"/>
    </edge>
    <edge id=":J29_3" function="internal">
        <lane id=":J29_3_0" index="0" speed="13.89" length="14.50" shape="367.80,373.49 382.30,373.41"/>
    </edge>
    <edge id=":J30_0" function="internal">
        <lane id=":J30_0_0" index="0" speed="13.89" length="14.40" shape="373.40,507.20 373.40,492.80"/>
    </edge>
    <edge id=":J30_1" function="internal">
        <lane id=":J30_1_0" index="0" speed="13.89" length="14.49" shape="382.29,501.60 367.80,501.60"/>
    </edge>
    <edge id=":J30_2" function="internal">
        <lane id=":J30_2_0" index="0" speed="13.89" length="14.40" shape="376.69,492.80 376.61,507.20"/>
    </edge>
    <edge id=":J30_3" function="internal">
        <lane id=":J30_3_0" index="0" speed="13.89" length="14.50" shape="367.80,498.49 382.30,498.41"/>
    </edge>
    <edge id=":J31_0" function="internal">
        <lane id=":J31_0_0" index="0" speed="13.89" length="14.40" shape="373.40,632.20 373.40,617.80"/>
    </edge>
    <edge id=":J31_1" function="internal">
        <lane id=":J31_1_0" index="0" speed="13.89" length="14.49" shape="382.29,626.60 367.80,626.60"/>
    </edge>
    <edge id=":J31_2" function="internal">
        <lane id=":J31_2_0" index="0" speed="13.89" length="14.40" shape="376.69,617.80 376.60,632.20"/>
    </edge>
    <edge id=":J31_3" function="internal">
        <lane id=":J31_3_0" index="0" speed="13.89" length="14.50" shape="367.80,623.49 382.30,623.41"/>
    </edge>
    <edge id=":J34_0" function="internal">
        <lane id=":J34_0_0" index="0" speed="13.89" length="14.40" shape="498.40,132.20 498.40,117.80"/>
    </edge>
    <edge id=":J34_1" function="internal">
        <lane id=":J34_1_0" index="0" speed="13.89" length="14.50" shape="507.30,126.60 492.80,126.60"/>
    </edge>
    <edge id=":J34_2" function="internal">
        <lane id=":J34_2_0" index="0" speed="13.89" length="14.40" shape="501.70,117.80 501.61,132.20"/>
    </edge>
    <edge id=":J34_3" function="internal">
        <lane id=":J34_3_0" index="0" speed="13.89" length="14.50" shape="492.80,123.49 507.30,123.41"/>
    </edge>
    <edge id=":J35_0" function="internal">
        <lane id=":J35_0_0" index="0" speed="13.89" length="14.40" shape="498.40,257.20 498.40,242.80"/>
    </edge>
    <edge id=":J35_1" function="internal">
        <lane id=":J35_1_0" index="0" speed="13.89" length="14.49" shape="507.29,251.60 492.80,251.60"/>
    </edge>
    <edge id=":J35_2" function="internal">
        <lane id=":J35_2_0" index="0" speed="13.89" length="14.40" shape="501.69,242.80 501.61,257.20"/>
    </edge>
    <edge id=":J35_3" function="internal">
        <lane id=":J35_3_0" index="0" speed="13.89" length="14.50" shape="492.80,248.49 507.30,248.41"/>
    </edge>
    <edge id=":J36_0" function="internal">
        <lane id=":J36_0_0" index="0" speed="13.89" length="14.40" shape="498.40,382.20 498.40,367.80"/>
    </edge>
    <edge id=":J36_1" function="internal">
        <lane id=":J36_1_0" index="0" speed="13.89" length="14.49" shape="507.29,376.60 492.80,376.60"/>
    </edge>
    <edge id=":J36_2" function="internal">
        <lane id=":J36_2_0" index="0" speed="13.89" length="14.40" shape="501.69,367.80 501.61,382.20"/>
    </edge>
    <edge id=":J36_3" function="internal">
        <lane id=":J36_3_0" index="0" speed="13.89" length="14.50" shape="492.80,373.49 507.30,373.41"/>
    </edge>
    <edge id=":J37_0" function="internal">
        <lane id=":J37_0_0" index="0" speed="13.89" length="14.40" shape="498.40,507.20 498.40,492.80"/>
    </edge>
    <edge id=":J37_1" function="internal">
        <lane id=":J37_1_0" index="0" speed="13.89" length="14.49" shape="507.29,501.60 492.80,501.60"/>
    </edge>
    <edge id=":J37_2" function="internal">
        <lane id=":J37_2_0" index="0" speed="13.89" length="14.40" shape="501.69,492.80 501.61,507.20"/>
    </edge>
    <edge id=":J37_3" function="internal">
        <lane id=":J37_3_0" index="0" speed="13.89" length="14.50" shape="492.80,498.49 507.30,498.41"/>
    </edge>
    <edge id=":J38_0" function="internal">
        <lane id=":J38_0_0" index="0" speed="13.89" length="14.40" shape="498.40,632.20 498.40,617.80"/>
    </edge>
    <edge id=":J38_1" function="internal">
        <lane id=":J38_1_0" index="0" speed="13.89" length="14.49" shape="507.29,626.60 492.80,626.60"/>
    </edge>
    <edge id=":J38_2" function="internal">
        <lane id=":J38_2_0" index="0" speed="13.89" length="14.40" shape="501.69,617.80 501.60,632.20"/>
    </edge>
    <edge id=":J38_3" function="internal">
        <lane id=":J38_3_0" index="0" speed="13.89" length="14.50" shape="492.80,623.49 507.30,623.41"/>
    </edge>
    <edge id=":J41_0" function="internal">
        <lane id=":J41_0_0" index="0" speed="13.89" length="14.40" shape="623.40,132.20 623.40,117.80"/>
    </edge>
    <edge id=":J41_1" function="internal">
        <lane id=":J41_1_0" index="0" speed="13.89" length="14.50" shape="632.30,126.60 617.80,126.60"/>
    </edge>
    <edge id=":J41_2" function="internal">
        <lane id=":J41_2_0" index="0" speed="13.89" length="14.40" shape="626.70,117.80 626.61,132.20"/>
    </edge>
    <edge id=":J41_3" function="internal">
        <lane id=":J41_3_0" index="0" speed="13.89" length="14.50" shape="617.80,123.49 632.30,123.40"/>
    </edge>
    <edge id=":J42_0" function="internal">
        <lane id=":J42_0_0" index="0" speed="13.89" length="14.40" shape="623.40,257.20 623.40,242.80"/>
    </edge>
    <edge id=":J42_1" function="internal">
        <lane id=":J42_1_0" index="0" speed="13.89" length="14.50" shape="632.30,251.60 617.80,251.60"/>
    </edge>
    <edge id=":J42_2" function="internal">
        <lane id=":J42_2_0" index="0" speed="13.89" length="14.40" shape="626.69,242.80 626.61,257.20"/>
    </edge>
    <edge id=":J42_3" function="internal">
        <lane id=":J42_3_0" index="0" speed="13.89" length="14.50" shape="617.80,248.49 632.30,248.40"/>
    </edge>
    <edge id=":J43_0" function="internal">
        <lane id=":J43_0_0" index="0" speed="13.89" length="14.40" shape="623.40,382.20 623.40,367.80"/>
    </edge>
    <edge id=":J43_1" function="internal">
        <lane id=":J43_1_0" index="0" speed="13.89" length="14.50" shape="632.30,376.60 617.80,376.60"/>
    </edge>
    <edge id=":J43_2" function="internal">
        <lane id=":J43_2_0" index="0" speed="13.89" length="14.40" shape="626.69,367.80 626.61,382.20"/>
    </edge>
    <edge id=":J43_3" function="internal">
        <lane id=":J43_3_0" index="0" speed="13.89" length="14.50" shape="617.80,373.49 632.30,373.40"/>
    </edge>
    <edge id=":J44_0" function="internal">
        <lane id=":J44_0_0" index="0" speed="13.89" length="14.40" shape="623.40,507.20 623.40,492.80"/>
    </edge>
    <edge id=":J44_1" function="internal">
        <lane id=":J44_1_0" index="0" speed="13.89" length="14.50" shape="632.30,501.60 617.80,501.60"/>
    </edge>
    <edge id=":J44_2" function="internal">
        <lane id=":J44_2_0" index="0" speed="13.89" length="14.40" shape="626.69,492.80 626.61,507.20"/>
    </edge>
    <edge id=":J44_3" function="internal">
        <lane id=":J44_3_0" index="0" speed="13.89" length="14.50" shape="617.80,498.49 632.30,498.40"/>
    </edge>
    <edge id=":J45_0" function="internal">
        <lane id=":J45_0_0" index="0" speed="13.89" length="14.40" shape="623.40,632.20 623.40,617.80"/>
    </edge>
    <edge id=":J45_1" function="internal">
        <lane id=":J45_1_0" index="0" speed="13.89" length="14.50" shape="632.30,626.60 617.80,626.60"/>
    </edge>
    <edge id=":J45_2" function="internal">
        <lane id=":J45_2_0" index="0" speed="13.89" length="14.40" shape="626.69,617.80 626.60,632.20"/>
    </edge>
    <edge id=":J45_3" function="internal">
        <lane id=":J45_3_0" index="0" speed="13.89" length="14.50" shape="617.80,623.49 632.30,623.40"/>
    </edge>

    <edge id="-E10" from="J18" to="J17" priority="-1">
        <lane id="-E10_0" index="0" speed="13.89" length="242.80" shape="123.40,875.00 123.40,632.20"/>
    </edge>
    <edge id="-E11" from="J20" to="J19" priority="-1">
        <lane id="-E11_0" index="0" speed="13.89" length="367.80" shape="248.40,117.80 248.40,-250.00"/>
    </edge>
    <edge id="-E12" from="J21" to="J20" priority="-1">
        <lane id="-E12_0" index="0" speed="13.89" length="110.60" shape="248.40,242.80 248.40,132.20"/>
    </edge>
    <edge id="-E13" from="J22" to="J21" priority="-1">
        <lane id="-E13_0" index="0" speed="13.89" length="110.60" shape="248.40,367.80 248.40,257.20"/>
    </edge>
    <edge id="-E14" from="J23" to="J22" priority="-1">
        <lane id="-E14_0" index="0" speed="13.89" length="110.60" shape="248.40,492.80 248.40,382.20"/>
    </edge>
    <edge id="-E15" from="J24" to="J23" priority="-1">
        <lane id="-E15_0" index="0" speed="13.89" length="110.60" shape="248.40,617.80 248.40,507.20"/>
    </edge>
    <edge id="-E16" from="J25" to="J24" priority="-1">
        <lane id="-E16_0" index="0" speed="13.89" length="242.80" shape="248.40,875.00 248.40,632.20"/>
    </edge>
    <edge id="-E17" from="J27" to="J26" priority="-1">
        <lane id="-E17_0" index="0" speed="13.89" length="367.80" shape="373.40,117.80 373.40,-250.00"/>
    </edge>
    <edge id="-E18" from="J28" to="J27" priority="-1">
        <lane id="-E18_0" index="0" speed="13.89" length="110.60" shape="373.40,242.80 373.40,132.20"/>
    </edge>
    <edge id="-E19" from="J29" to="J28" priority="-1">
        <lane id="-E19_0" index="0" speed="13.89" length="110.60" shape="373.40,367.80 373.40,257.20"/>
    </edge>
    <edge id="-E20" from="J30" to="J29" priority="-1">
        <lane id="-E20_0" index="0" speed="13.89" length="110.60" shape="373.40,492.80 373.40,382.20"/>
    </edge>
    <edge id="-E21" from="J31" to="J30" priority="-1">
        <lane id="-E21_0" index="0" speed="13.89" length="110.60" shape="373.40,617.80 373.40,507.20"/>
    </edge>
    <edge id="-E22" from="J32" to="J31" priority="-1">
        <lane id="-E22_0" index="0" speed="13.89" length="242.80" shape="373.40,875.00 373.40,632.20"/>
    </edge>
    <edge id="-E23" from="J34" to="J33" priority="-1">
        <lane id="-E23_0" index="0" speed="13.89" length="367.80" shape="498.40,117.80 498.40,-250.00"/>
    </edge>
    <edge id="-E24" from="J35" to="J34" priority="-1">
        <lane id="-E24_0" index="0" speed="13.89" length="110.60" shape="498.40,242.80 498.40,132.20"/>
    </edge>
    <edge id="-E25" from="J36" to="J35" priority="-1">
        <lane id="-E25_0" index="0" speed="13.89" length="110.60" shape="498.40,367.80 498.40,257.20"/>
    </edge>
    <edge id="-E26" from="J37" to="J36" priority="-1">
        <lane id="-E26_0" index="0" speed="13.89" length="110.60" shape="498.40,492.80 498.40,382.20"/>
    </edge>
    <edge id="-E27" from="J38" to="J37" priority="-1">
        <lane id="-E27_0" index="0" speed="13.89" length="110.60" shape="498.40,617.80 498.40,507.20"/>
    </edge>
    <edge id="-E28" from="J39" to="J38" priority="-1">
        <lane id="-E28_0" index="0" speed="13.89" length="242.80" shape="498.40,875.00 498.40,632.20"/>
    </edge>
    <edge id="-E29" from="J41" to="J40" priority="-1">
        <lane id="-E29_0" index="0" speed="13.89" length="367.80" shape="623.40,117.80 623.40,-250.00"/>
    </edge>
    <edge id="-E30" from="J42" to="J41" priority="-1">
        <lane id="-E30_0" index="0" speed="13.89" length="110.60" shape="623.40,242.80 623.40,132.20"/>
    </edge>
    <edge id="-E31" from="J43" to="J42" priority="-1">
        <lane id="-E31_0" index="0" speed="13.89" length="110.60" shape="623.40,367.80 623.40,257.20"/>
    </edge>
    <edge id="-E32" from="J44" to="J43" priority="-1">
        <lane id="-E32_0" index="0" speed="13.89" length="110.60" shape="623.40,492.80 623.40,382.20"/>
    </edge>
    <edge id="-E33" from="J45" to="J44" priority="-1">
        <lane id="-E33_0" index="0" speed="13.89" length="110.60" shape="623.40,617.80 623.40,507.20"/>
    </edge>
    <edge id="-E34" from="J46" to="J45" priority="-1">
        <lane id="-E34_0" index="0" speed="13.89" length="242.80" shape="623.40,875.00 623.40,632.20"/>
    </edge>
    <edge id="-E35" from="J17" to="J47" priority="-1">
        <lane id="-E35_0" index="0" speed="13.89" length="242.80" shape="117.80,626.60 -125.00,626.60"/>
    </edge>
    <edge id="-E36" from="J24" to="J17" priority="-1">
        <lane id="-E36_0" index="0" speed="13.89" length="110.51" shape="242.80,626.60 132.29,626.60"/>
    </edge>
    <edge id="-E37" from="J31" to="J24" priority="-1">
        <lane id="-E37_0" index="0" speed="13.89" length="110.51" shape="367.80,626.60 257.29,626.60"/>
    </edge>
    <edge id="-E38" from="J38" to="J31" priority="-1">
        <lane id="-E38_0" index="0" speed="13.89" length="110.51" shape="492.80,626.60 382.29,626.60"/>
    </edge>
    <edge id="-E39" from="J45" to="J38" priority="-1">
        <lane id="-E39_0" index="0" speed="13.89" length="110.51" shape="617.80,626.60 507.29,626.60"/>
    </edge>
    <edge id="-E40" from="J48" to="J45" priority="-1">
        <lane id="-E40_0" index="0" speed="13.89" length="242.70" shape="875.00,626.60 632.30,626.60"/>
    </edge>
    <edge id="-E41" from="J16" to="J49" priority="-1">
        <lane id="-E41_0" index="0" speed="13.89" length="242.80" shape="117.80,501.60 -125.00,501.60"/>
    </edge>
    <edge id="-E42" from="J23" to="J16" priority="-1">
        <lane id="-E42_0" index="0" speed="13.89" length="110.51" shape="242.80,501.60 132.29,501.60"/>
    </edge>
    <edge id="-E43" from="J30" to="J23" priority="-1">
        <lane id="-E43_0" index="0" speed="13.89" length="110.51" shape="367.80,501.60 257.29,501.60"/>
    </edge>
    <edge id="-E44" from="J37" to="J30" priority="-1">
        <lane id="-E44_0" index="0" speed="13.89" length="110.51" shape="492.80,501.60 382.29,501.60"/>
    </edge>
    <edge id="-E45" from="J44" to="J37" priority="-1">
        <lane id="-E45_0" index="0" speed="13.89" length="110.51" shape="617.80,501.60 507.29,501.60"/>
    </edge>
    <edge id="-E46" from="J50" to="J44" priority="-1">
        <lane id="-E46_0" index="0" speed="13.89" length="242.70" shape="875.00,501.60 632.30,501.60"/>
    </edge>
    <edge id="-E47" from="J15" to="J51" priority="-1">
        <lane id="-E47_0" index="0" speed="13.89" length="242.80" shape="117.80,376.60 -125.00,376.60"/>
    </edge>
    <edge id="-E48" from="J22" to="J15" priority="-1">
        <lane id="-E48_0" index="0" speed="13.89" length="110.51" shape="242.80,376.60 132.29,376.60"/>
    </edge>
    <edge id="-E49" from="J29" to="J22" priority="-1">
        <lane id="-E49_0" index="0" speed="13.89" length="110.51" shape="367.80,376.60 257.29,376.60"/>
    </edge>
    <edge id="-E5" from="J13" to="J12" priority="-1">
        <lane id="-E5_0" index="0" speed="13.89" length="367.80" shape="123.40,117.80 123.40,-250.00"/>
    </edge>
    <edge id="-E50" from="J36" to="J29" priority="-1">
        <lane id="-E50_0" index="0" speed="13.89" length="110.51" shape="492.80,376.60 382.29,376.60"/>
    </edge>
    <edge id="-E51" from="J43" to="J36" priority="-1">
        <lane id="-E51_0" index="0" speed="13.89" length="110.51" shape="617.80,376.60 507.29,376.60"/>
    </edge>
    <edge id="-E52" from="J52" to="J43" priority="-1">
        <lane id="-E52_0" index="0" speed="13.89" length="242.70" shape="875.00,376.60 632.30,376.60"/>
    </edge>
    <edge id="-E53" from="J14" to="J53" priority="-1">
        <lane id="-E53_0" index="0" speed="13.89" length="242.80" shape="117.80,251.60 -125.00,251.60"/>
    </edge>
    <edge id="-E54" from="J21" to="J14" priority="-1">
        <lane id="-E54_0" index="0" speed="13.89" length="110.51" shape="242.80,251.60 132.29,251.60"/>
    </edge>
    <edge id="-E55" from="J28" to="J21" priority="-1">
        <lane id="-E55_0" index="0" speed="13.89" length="110.51" shape="367.80,251.60 257.29,251.60"/>
    </edge>
    <edge id="-E56" from="J35" to="J28" priority="-1">
        <lane id="-E56_0" index="0" speed="13.89" length="110.51" shape="492.80,251.60 382.29,251.60"/>
    </edge>
    <edge id="-E57" from="J42" to="J35" priority="-1">
        <lane id="-E57_0" index="0" speed="13.89" length="110.51" shape="617.80,251.60 507.29,251.60"/>
    </edge>
    <edge id="-E58" from="J54" to="J42" priority="-1">
        <lane id="-E58_0" index="0" speed="13.89" length="242.70" shape="875.00,251.60 632.30,251.60"/>
    </edge>
    <edge id="-E59" from="J13" to="J55" priority="-1">
        <lane id="-E59_0" index="0" speed="13.89" length="242.80" shape="117.80,126.60 -125.00,126.60"/>
    </edge>
    <edge id="-E6" from="J14" to="J13" priority="-1">
        <lane id="-E6_0" index="0" speed="13.89" length="110.60" shape="123.40,242.80 123.40,132.20"/>
    </edge>
    <edge id="-E60" from="J20" to="J13" priority="-1">
        <lane id="-E60_0" index="0" speed="13.89" length="110.50" shape="242.80,126.60 132.30,126.60"/>
    </edge>
    <edge id="-E61" from="J27" to="J20" priority="-1">
        <lane id="-E61_0" index="0" speed="13.89" length="110.50" shape="367.80,126.60 257.30,126.60"/>
    </edge>
    <edge id="-E62" from="J34" to="J27" priority="-1">
        <lane id="-E62_0" index="0" speed="13.89" length="110.50" shape="492.80,126.60 382.30,126.60"/>
    </edge>
    <edge id="-E63" from="J41" to="J34" priority="-1">
        <lane id="-E63_0" index="0" speed="13.89" length="110.50" shape="617.80,126.60 507.30,126.60"/>
    </edge>
    <edge id="-E64" from="J56" to="J41" priority="-1">
        <lane id="-E64_0" index="0" speed="13.89" length="242.70" shape="875.00,126.60 632.30,126.60"/>
    </edge>
    <edge id="-E7" from="J15" to="J14" priority="-1">
        <lane id="-E7_0" index="0" speed="13.89" length="110.60" shape="123.40,367.80 123.40,257.20"/>
    </edge>
    <edge id="-E8" from="J16" to="J15" priority="-1">
        <lane id="-E8_0" index="0" speed="13.89" length="110.60" shape="123.40,492.80 123.40,382.20"/>
    </edge>
    <edge id="-E9" from="J17" to="J16" priority="-1">
        <lane id="-E9_0" index="0" speed="13.89" length="110.60" shape="123.40,617.80 123.40,507.20"/>
    </edge>
    <edge id="E10" from="J17" to="J18" priority="-1" shape="125.00,625.00 125.10,875.10">
        <lane id="E10_0" index="0" speed="13.89" length="242.80" shape="126.60,632.20 126.70,875.00"/>
    </edge>
    <edge id="E11" from="J19" to="J20" priority="-1" shape="250.00,-250.00 250.10,125.10">
        <lane id="E11_0" index="0" speed="13.89" length="367.80" shape="251.60,-250.00 251.70,117.80"/>
    </edge>
    <edge id="E12" from="J20" to="J21" priority="-1" shape="250.00,125.00 250.10,250.10">
        <lane id="E12_0" index="0" speed="13.89" length="110.60" shape="251.61,132.20 251.69,242.80"/>
    </edge>
    <edge id="E13" from="J21" to="J22" priority="-1" shape="250.00,250.00 250.10,375.10">
        <lane id="E13_0" index="0" speed="13.89" length="110.60" shape="251.61,257.20 251.69,367.80"/>
    </edge>
    <edge id="E14" from="J22" to="J23" priority="-1" shape="250.00,375.00 250.10,500.10">
        <lane id="E14_0" index="0" speed="13.89" length="110.60" shape="251.61,382.20 251.69,492.80"/>
    </edge>
    <edge id="E15" from="J23" to="J24" priority="-1" shape="250.00,500.00 250.10,625.10">
        <lane id="E15_0" index="0" speed="13.89" length="110.60" shape="251.61,507.20 251.69,617.80"/>
    </edge>
    <edge id="E16" from="J24" to="J25" priority="-1" shape="250.00,625.00 250.10,875.10">
        <lane id="E16_0" index="0" speed="13.89" length="242.80" shape="251.60,632.20 251.70,875.00"/>
    </edge>
    <edge id="E17" from="J26" to="J27" priority="-1" shape="375.00,-250.00 375.10,125.10">
        <lane id="E17_0" index="0" speed="13.89" length="367.80" shape="376.60,-250.00 376.70,117.80"/>
    </edge>
    <edge id="E18" from="J27" to="J28" priority="-1" shape="375.00,125.00 375.10,250.10">
        <lane id="E18_0" index="0" speed="13.89" length="110.60" shape="376.61,132.20 376.69,242.80"/>
    </edge>
    <edge id="E19" from="J28" to="J29" priority="-1" shape="375.00,250.00 375.10,375.10">
        <lane id="E19_0" index="0" speed="13.89" length="110.60" shape="376.61,257.20 376.69,367.80"/>
    </edge>
    <edge id="E20" from="J29" to="J30" priority="-1" shape="375.00,375.00 375.10,500.10">
        <lane id="E20_0" index="0" speed="13.89" length="110.60" shape="376.61,382.20 376.69,492.80"/>
    </edge>