<?xml version="1.0" encoding="UTF-8"?>

<!-- generated on 2022-10-10 14:48:02 by Eclipse SUMO netedit Version 1.14.1
-->

<routes xmlns:xsi="http://www.w3.org/2001/XMLSchema-instance" xsi:noNamespaceSchemaLocation="http://sumo.dlr.de/xsd/routes_file.xsd">
    <!-- Vehicles, persons and containers (sorted by depart) -->

    <!-- Upward -->
    <flow id="f_1" begin="0.00" departLane="best" departPos="random" fromJunction="J3" toJunction="J0" end="1214.00" vehsPerHour="5000"/>
    <flow id="f_3" begin="0.00" departLane="best" departPos="random" fromJunction="J2" toJunction="J0" end="1214.00" vehsPerHour="5000"/>
    <flow id="f_2" begin="0.00" departLane="best" departPos="random" fromJunction="J2" toJunction="J1" end="1214.00" vehsPerHour="5000"/>
    <flow id="f_0" begin="0.00" departLane="best" departPos="random" fromJunction="J3" toJunction="J1" end="1214.00" vehsPerHour="5000"/>

    <!-- Downward -->
    <flow id="f_4" begin="0.00" departLane="best" departPos="random" fromJunction="J0" toJunction="J2" end="1214.00" vehsPerHour="1250"/>
    <flow id="f_5" begin="0.00" departLane="best" departPos="random" fromJunction="J0" toJunction="J3" end="1214.00" vehsPerHour="1250"/>
    <flow id="f_7" begin="0.00" departLane="best" departPos="random" fromJunction="J1" toJunction="J3" end="1214.00" vehsPerHour="1250"/>
    <flow id="f_6" begin="0.00" departLane="best" departPos="random" fromJunction="J1" toJunction="J2" end="1214.00" vehsPerHour="1250"/>

    <!-- Right -->
    <flow id="f_8" begin="0.00" departLane="best" departPos="random" fromJunction="J17" toJunction="J18" end="1214.00" vehsPerHour="1666"/>
    <flow id="f_9" begin="0.00" departLane="best" departPos="random" fromJunction="J4" toJunction="J78" end="1214.00" vehsPerHour="1666"/>

    <!-- Left -->
    <flow id="f_10" begin="0.00" departLane="best" departPos="random" fromJunction="J78" toJunction="J4" end="1214.00" vehsPerHour="1666"/>
    <flow id="f_11" begin="0.00" departLane="best" departPos="random" fromJunction="J18" toJunction="J17" end="1214.00" vehsPerHour="1666"/>

    <person id="0" depart="0.00">
        <walk from="E162" to="-E11"/>
    </person>
    <person id="1" depart="0.36">
        <walk from="-E227" to="-E202"/>
    </person>
    <person id="2" depart="0.72">
        <walk from="E209" to="E180"/>
    </person>
    <person id="3" depart="1.08">
        <walk from="E47" to="-E139"/>
    </person>
    <person id="4" depart="1.44">
        <walk from="-E60" to="-E111"/>
    </person>
    <person id="5" depart="1.80">
        <walk from="-E20" to="-E99"/>
    </person>
    <person id="6" depart="2.16">
        <walk from="-E110" to="-E191"/>
    </person>
    <person id="7" depart="2.52">
        <walk from="E168" to="E116"/>
    </person>
    <person id="8" depart="2.88">
        <walk from="-E200" to="E138"/>
    </person>
    <person id="9" depart="3.24">
        <walk from="E244" to="-E100"/>
    </person>
    <person id="10" depart="3.60">
        <walk from="E242" to="E190"/>
    </person>
    <person id="11" depart="3.96">
        <walk from="-E258" to="-E170"/>
    </person>
    <person id="12" depart="4.32">
        <walk from="E79" to="-E256"/>
    </person>
    <person id="13" depart="4.68">
        <walk from="-E141" to="-E142"/>
    </person>
    <person id="14" depart="5.04">
        <walk from="E262" to="E145"/>
    </person>
    <person id="15" depart="5.40">
        <walk from="E243" to="E205"/>
    </person>
    <person id="16" depart="5.76">
        <walk from="E112" to="E86"/>
    </person>
    <person id="17" depart="6.12">
        <walk from="-E4" to="E12"/>
    </person>
    <person id="18" depart="6.48">
        <walk from="E253" to="E152"/>
    </person>
    <person id="19" depart="6.84">
        <walk from="E32" to="E132"/>
    </person>
    <person id="20" depart="7.20">
        <walk from="E194" to="-E12"/>
    </person>
    <person id="21" depart="7.56">
        <walk from="-E204" to="-E233"/>
    </person>
    <person id="22" depart="7.92">
        <walk from="-E135" to="-E207"/>
    </person>
    <person id="23" depart="8.28">
        <walk from="-E144" to="-E229"/>
    </person>
    <person id="24" depart="8.64">
        <walk from="E160" to="-E32"/>
    </person>
    <person id="25" depart="9.00">
        <walk from="-E35" to="-E196"/>
    </person>
    <person id="26" depart="9.36">
        <walk from="-E223" to="E69"/>
    </person>
    <person id="27" depart="9.72">
        <walk from="E167" to="E148"/>
    </person>
    <person id="28" depart="10.08">
        <walk from="-E178" to="E205"/>
    </person>
    <person id="29" depart="10.44">
        <walk from="-E174" to="-E4"/>
    </person>
    <person id="30" depart="10.80">
        <walk from="E94" to="E162"/>
    </person>
    <person id="31" depart="11.16">
        <walk from="E122" to="E184"/>
    </person>
    <person id="32" depart="11.52">
        <walk from="E260" to="E228"/>
    </person>
    <person id="33" depart="11.88">
        <walk from="-E205" to="-E113"/>
    </person>
    <person id="34" depart="12.24">
        <walk from="-E246" to="-E223"/>
    </person>
    <person id="35" depart="12.60">
        <walk from="-E197" to="E71"/>
    </person>
    <person id="36" depart="12.96">
        <walk from="E39" to="-E246"/>
    </person>
    <person id="37" depart="13.32">
        <walk from="E170" to="-E48"/>
    </person>
    <person id="38" depart="13.68">
        <walk from="E58" to="-E77"/>
    </person>
    <person id="39" depart="14.04">
        <walk from="-E222" to="-E213"/>
    </person>
    <person id="40" depart="14.40">
        <walk from="E124" to="-E221"/>
    </person>
    <person id="41" depart="14.76">
        <walk from="E136" to="E5"/>
    </person>
    <person id="42" depart="15.12">
        <walk from="-E5" to="-E200"/>
    </person>
    <person id="43" depart="15.48">
        <walk from="E98" to="E10"/>
    </person>
    <person id="44" depart="15.84">
        <walk from="-E140" to="-E120"/>
    </person>
    <person id="45" depart="16.20">
        <walk from="-E149" to="E157"/>
    </person>
    <person id="46" depart="16.56">
        <walk from="E235" to="-E60"/>
    </person>
    <person id="47" depart="16.92">
        <walk from="-E128" to="-E40"/>
    </person>
    <person id="48" depart="17.28">
        <walk from="E97" to="E109"/>
    </person>
    <person id="49" depart="17.64">
        <walk from="E85" to="E31"/>
    </person>
    <person id="50" depart="18.00">
        <walk from="-E103" to="E200"/>
    </person>
    <person id="51" depart="18.36">
        <walk from="E183" to="E112"/>
    </person>
    <person id="52" depart="18.72">
        <walk from="-E223" to="E163"/>
    </person>
    <person id="53" depart="19.08">
        <walk from="-E15" to="-E67"/>
    </person>
    <person id="54" depart="19.44">
        <walk from="-E74" to="E77"/>
    </person>
    <person id="55" depart="19.80">
        <walk from="E39" to="-E221"/>
    </person>
    <person id="56" depart="20.16">
        <walk from="-E97" to="-E181"/>
    </person>
    <person id="57" depart="20.52">
        <walk from="E57" to="E36"/>
    </person>
    <person id="58" depart="20.88">
        <walk from="-E238" to="E162"/>
    </person>
    <person id="59" depart="21.24">
        <walk from="E148" to="-E169"/>
    </person>
    <person id="60" depart="21.60">
        <walk from="E221" to="E114"/>
    </person>
    <person id="61" depart="21.96">
        <walk from="E229" to="E11"/>
    </person>
    <person id="62" depart="22.32">
        <walk from="-E0" to="-E250"/>
    </person>
    <person id="63" depart="22.68">
        <walk from="-E107" to="E65"/>
    </person>
    <person id="64" depart="23.04">
        <walk from="E40" to="E255"/>
    </person>
    <person id="65" depart="23.40">
        <walk from="-E242" to="-E125"/>
    </person>
    <person id="66" depart="23.76">
        <walk from="E4" to="E73"/>
    </person>
    <person id="67" depart="24.12">
        <walk from="-E138" to="-E9"/>
    </person>
    <person id="68" depart="24.48">
        <walk from="-E130" to="E220"/>
    </person>
    <person id="69" depart="24.84">
        <walk from="E222" to="-E158"/>
    </person>
    <person id="70" depart="25.20">
        <walk from="-E84" to="E119"/>
    </person>
    <person id="71" depart="25.56">
        <walk from="-E222" to="E37"/>
    </person>
    <person id="72" depart="25.92">
        <walk from="-E60" to="-E198"/>
    </person>
    <person id="73" depart="26.28">
        <walk from="E113" to="E205"/>
    </person>
    <person id="74" depart="26.64">
        <walk from="-E192" to="-E244"/>
    </person>
    <person id="75" depart="27.00">
        <walk from="E97" to="E168"/>
    </person>
    <person id="76" depart="27.36">
        <walk from="-E68" to="E103"/>
    </person>
    <person id="77" depart="27.72">
        <walk from="-E154" to="-E202"/>
    </person>
    <person id="78" depart="28.08">
        <walk from="-E257" to="E138"/>
    </person>
    <person id="79" depart="28.44">
        <walk from="-E205" to="-E200"/>
    </person>
    <person id="80" depart="28.80">
        <walk from="-E131" to="E159"/>
    </person>
    <person id="81" depart="29.16">
        <walk from="-E205" to="E53"/>
    </person>
    <person id="82" depart="29.52">
        <walk from="E31" to="-E131"/>
    </person>
    <person id="83" depart="29.88">
        <walk from="-E21" to="E177"/>
    </person>
    <person id="84" depart="30.24">
        <walk from="-E199" to="-E1590"/>
    </person>
    <person id="85" depart="30.60">
        <walk from="E68" to="E129"/>
    </person>
    <person id="86" depart="30.96">
        <walk from="-E83" to="E231"/>
    </person>
    <person id="87" depart="31.32">
        <walk from="E243" to="-E187"/>
    </person>
    <person id="88" depart="31.68">
        <walk from="-E142" to="-E65"/>
    </person>
    <person id="89" depart="32.04">
        <walk from="-E61" to="-E80"/>
    </person>
    <person id="90" depart="32.40">
        <walk from="E205" to="E179"/>
    </person>
    <person id="91" depart="32.76">
        <walk from="E91" to="-E143"/>
    </person>
    <person id="92" depart="33.12">
        <walk from="-E50" to="-E258"/>
    </person>
    <person id="93" depart="33.48">
        <walk from="E32" to="-E214"/>
    </person>
    <person id="94" depart="33.84">
        <walk from="-E187" to="-E710"/>
    </person>
    <person id="95" depart="34.20">
        <walk from="-E60" to="-E229"/>
    </person>
    <person id="96" depart="34.56">
        <walk from="-E215" to="E62"/>
    </person>
    <person id="97" depart="34.92">
        <walk from="-E7" to="E31"/>
    </person>
    <person id="98" depart="35.28">
        <walk from="E119" to="-E122"/>
    </person>
    <person id="99" depart="35.64">
        <walk from="E99" to="E257"/>
    </person>
    <person id="100" depart="36.00">
        <walk from="E84" to="E63"/>
    </person>
    <person id="101" depart="36.36">
        <walk from="E263" to="-E175"/>
    </person>
    <person id="102" depart="36.72">
        <walk from="-E9" to="-E199"/>
    </person>
    <person id="103" depart="37.08">
        <walk from="-E50" to="-E126"/>
    </person>
    <person id="104" depart="37.44">
        <walk from="-E4" to="E92"/>
    </person>
    <person id="105" depart="37.80">
        <walk from="-E222" to="E231"/>
    </person>
    <person id="106" depart="38.16">
        <walk from="-E74" to="-E60"/>
    </person>
    <person id="107" depart="38.52">
        <walk from="E79" to="E97"/>
    </person>
    <person id="108" depart="38.88">
        <walk from="E121" to="E20"/>
    </person>
    <person id="109" depart="39.24">
        <walk from="-E17" to="-E237"/>
    </person>
    <person id="110" depart="39.60">
        <walk from="E84" to="E133"/>
    </person>
    <person id="111" depart="39.96">
        <walk from="E115" to="E214"/>
    </person>
    <person id="112" depart="40.32">
        <walk from="-E125" to="E135"/>
    </person>
    <person id="113" depart="40.68">
        <walk from="-E98" to="E28"/>
    </person>
    <person id="114" depart="41.04">
        <walk from="-E171" to="E80"/>
    </person>
    <person id="115" depart="41.40">
        <walk from="-E135" to="-E185"/>
    </person>
    <person id="116" depart="41.76">
        <walk from="E140" to="E18"/>
    </person>
    <person id="117" depart="42.12">
        <walk from="-E208" to="-E154"/>
    </person>
    <person id="118" depart="42.48">
        <walk from="E46" to="-E213"/>
    </person>
    <person id="119" depart="42.84">
        <walk from="E140" to="E152"/>
    </person>
    <person id="120" depart="43.20">
        <walk from="-E59" to="E135"/>
    </person>
    <person id="121" depart="43.56">
        <walk from="E106" to="E68"/>
    </person>
    <person id="122" depart="43.92">
        <walk from="-E194" to="E2"/>
    </person>
    <person id="123" depart="44.28">
        <walk from="-E21" to="-E48"/>
    </person>
    <person id="124" depart="44.64">
        <walk from="E178" to="-E239"/>
    </person>
    <person id="125" depart="45.00">
        <walk from="-E246" to="E216"/>
    </person>
    <person id="126" depart="45.36">
        <walk from="-E1310" to="-E76"/>
    </person>
    <person id="127" depart="45.72">
        <walk from="E99" to="E97"/>
    </person>
    <person id="128" depart="46.08">
        <walk from="-E132" to="-E198"/>
    </person>
    <person id="129" depart="46.44">
        <walk from="-E222" to="E67"/>
    </person>
    <person id="130" depart="46.80">
        <walk from="E41" to="E40"/>
    </person>
    <person id="131" depart="47.16">
        <walk from="-E35" to="-E171"/>
    </person>
    <person id="132" depart="47.52">
        <walk from="E256" to="E193"/>
    </person>
    <person id="133" depart="47.88">
        <walk from="E149" to="E93"/>
    </person>
    <person id="134" depart="48.24">
        <walk from="E17" to="-E101"/>
    </person>
    <person id="135" depart="48.60">
        <walk from="E248" to="-E238"/>
    </person>
    <person id="136" depart="48.96">
        <walk from="E174" to="E7"/>
    </person>
    <person id="137" depart="49.32">
        <walk from="-E16" to="-E151"/>
    </person>
    <person id="138" depart="49.68">
        <walk from="-E148" to="E120"/>
    </person>
    <person id="139" depart="50.04">
        <walk from="-E226" to="E145"/>
    </person>
    <person id="140" depart="50.40">
        <walk from="E20" to="-E193"/>
    </person>
    <person id="141" depart="50.76">
        <walk from="E16" to="-E221"/>
    </person>
    <person id="142" depart="51.12">
        <walk from="-E90" to="E53"/>
    </person>
    <person id="143" depart="51.48">
        <walk from="E261" to="-E141"/>
    </person>
    <person id="144" depart="51.84">
        <walk from="-E61" to="-E228"/>
    </person>
    <person id="145" depart="52.20">
        <walk from="-E1" to="E225"/>
    </person>
    <person id="146" depart="52.56">
        <walk from="E161" to="-E220"/>
    </person>
    <person id="147" depart="52.92">
        <walk from="E210" to="E12"/>
    </person>
    <person id="148" depart="53.28">
        <walk from="-E63" to="-E102"/>
    </person>
    <person id="149" depart="53.64">
        <walk from="-E133" to="E42"/>
    </person>
    <person id="150" depart="54.00">
        <walk from="E52" to="E117"/>
    </person>
    <person id="151" depart="54.36">
        <walk from="E256" to="E135"/>
    </person>
    <person id="152" depart="54.72">
        <walk from="-E167" to="-E158"/>
    </person>
    <person id="153" depart="55.08">
        <walk from="-E242" to="E50"/>
    </person>
    <person id="154" depart="55.44">
        <walk from="E238" to="E31"/>
    </person>
    <person id="155" depart="55.80">
        <walk from="E50" to="-E197"/>
    </person>
    <person id="156" depart="56.16">
        <walk from="-E215" to="-E145"/>
    </person>
    <person id="157" depart="56.52">
        <walk from="E23" to="E43"/>
    </person>
    <person id="158" depart="56.88">
        <walk from="-E53" to="E153"/>
    </person>
    <person id="159" depart="57.24">
        <walk from="-E17" to="E65"/>
    </person>
    <person id="160" depart="57.60">
        <walk from="E33" to="E88"/>
    </person>
    <person id="161" depart="57.96">
        <walk from="E244" to="E41"/>
    </person>
    <person id="162" depart="58.32">
        <walk from="-E11" to="E209"/>
    </person>
    <person id="163" depart="58.68">
        <walk from="-E254" to="E66"/>
    </person>
    <person id="164" depart="59.04">
        <walk from="E240" to="E33"/>
    </person>
    <person id="165" depart="59.40">
        <walk from="E244" to="-E223"/>
    </person>
    <person id="166" depart="59.76">
        <walk from="E233" to="-E148"/>
    </person>
    <person id="167" depart="60.12">
        <walk from="E37" to="E30"/>
    </person>
    <person id="168" depart="60.48">
        <walk from="-E201" to="E248"/>
    </person>
    <person id="169" depart="60.84">
        <walk from="-E77" to="-E240"/>
    </person>
    <person id="170" depart="61.20">
        <walk from="E237" to="-E204"/>
    </person>
    <person id="171" depart="61.56">
        <walk from="-E109" to="-E189"/>
    </person>
    <person id="172" depart="61.92">
        <walk from="-E252" to="E33"/>
    </person>
    <person id="173" depart="62.28">
        <walk from="E83" to="-E23"/>
    </person>
    <person id="174" depart="62.64">
        <walk from="E163" to="-E5"/>
    </person>
    <person id="175" depart="63.00">
        <walk from="E9" to="E112"/>
    </person>
    <person id="176" depart="63.36">
        <walk from="E7" to="-E151"/>
    </person>
    <person id="177" depart="63.72">
        <walk from="E85" to="-E181"/>
    </person>
    <person id="178" depart="64.08">
        <walk from="E80" to="-E222"/>
    </person>
    <person id="179" depart="64.44">
        <walk from="-E148" to="-E67"/>
    </person>
    <person id="180" depart="64.80">
        <walk from="E205" to="-E245"/>
    </person>
    <person id="181" depart="65.16">
        <walk from="E146" to="E100"/>
    </person>
    <person id="182" depart="65.52">
        <walk from="-E42" to="E131"/>
    </person>
    <person id="183" depart="65.88">
        <walk from="-E218" to="E196"/>
    </person>
    <person id="184" depart="66.24">
        <walk from="-E0" to="E63"/>
    </person>
    <person id="185" depart="66.60">
        <walk from="E113" to="E200"/>
    </person>
    <person id="186" depart="66.96">
        <walk from="E211" to="E178"/>
    </person>
    <person id="187" depart="67.32">
        <walk from="-E32" to="-E131"/>
    </person>
    <person id="188" depart="67.68">
        <walk from="E174" to="-E253"/>
    </person>
    <person id="189" depart="68.04">
        <walk from="-E245" to="E262"/>
    </person>
    <person id="190" depart="68.40">
        <walk from="E200" to="-E239"/>
    </person>
    <person id="191" depart="68.76">
        <walk from="-E243" to="-E54"/>
    </person>
    <person id="192" depart="69.12">
        <walk from="-E50" to="-E236"/>
    </person>
    <person id="193" depart="69.48">
        <walk from="-E157" to="-E6"/>
    </person>
    <person id="194" depart="69.84">
        <walk from="E70" to="E180"/>
    </person>
    <person id="195" depart="70.20">
        <walk from="E52" to="E150"/>
    </person>
    <person id="196" depart="70.56">
        <walk from="-E239" to="E118"/>
    </person>
    <person id="197" depart="70.92">
        <walk from="-E0" to="-E2320"/>
    </person>
    <person id="198" depart="71.28">
        <walk from="-E64" to="E133"/>
    </person>
    <person id="199" depart="71.64">
        <walk from="E17" to="-E8"/>
    </person>
    <person id="200" depart="72.00">
        <walk from="-E7" to="-E199"/>
    </person>
    <person id="201" depart="72.36">
        <walk from="-E83" to="E51"/>
    </person>
    <person id="202" depart="72.72">
        <walk from="E238" to="-E177"/>
    </person>
    <person id="203" depart="73.08">
        <walk from="-E138" to="E102"/>
    </person>
    <person id="204" depart="73.44">
        <walk from="E159" to="-E255"/>
    </person>
    <person id="205" depart="73.80">
        <walk from="E249" to="E216"/>
    </person>
    <person id="206" depart="74.16">
        <walk from="E179" to="-E202"/>
    </person>
    <person id="207" depart="74.52">
        <walk from="-E191" to="-E11"/>
    </person>
    <person id="208" depart="74.88">
        <walk from="-E212" to="-E84"/>
    </person>
    <person id="209" depart="75.24">
        <walk from="E263" to="-E1310"/>
    </person>
    <person id="210" depart="75.60">
        <walk from="-E57" to="E158"/>
    </person>
    <person id="211" depart="75.96">
        <walk from="-E189" to="E19"/>
    </person>
    <person id="212" depart="76.32">
        <walk from="-E93" to="-E212"/>
    </person>
    <person id="213" depart="76.68">
        <walk from="E170" to="-E10"/>
    </person>
    <person id="214" depart="77.04">
        <walk from="E216" to="E225"/>
    </person>
    <person id="215" depart="77.40">
        <walk from="-E147" to="-E62"/>
    </person>
    <person id="216" depart="77.76">
        <walk from="-E18" to="E79"/>
    </person>
    <person id="217" depart="78.12">
        <walk from="E103" to="-E121"/>
    </person>
    <person id="218" depart="78.48">
        <walk from="-E215" to="E263"/>
    </person>
    <person id="219" depart="78.84">
        <walk from="-E75" to="E24"/>
    </person>
    <person id="220" depart="79.20">
        <walk from="E176" to="E93"/>
    </person>
    <person id="221" depart="79.56">
        <walk from="E140" to="E75"/>
    </person>
    <person id="222" depart="79.92">
        <walk from="E47" to="E15"/>
    </person>
    <person id="223" depart="80.28">
        <walk from="E200" to="-E99"/>
    </person>
    <person id="224" depart="80.64">
        <walk from="E254" to="E118"/>
    </person>
    <person id="225" depart="81.00">
        <walk from="E5" to="E212"/>
    </person>
    <person id="226" depart="81.36">
        <walk from="-E84" to="-E22"/>
    </person>
    <person id="227" depart="81.72">
        <walk from="-E214" to="E161"/>
    </person>
    <person id="228" depart="82.08">
        <walk from="E222" to="E105"/>
    </person>
    <person id="229" depart="82.44">
        <walk from="E156" to="-E227"/>
    </person>
    <person id="230" depart="82.80">
        <walk from="-E134" to="-E232"/>
    </person>
    <person id="231" depart="83.16">
        <walk from="-E226" to="-E248"/>
    </person>
    <person id="232" depart="83.52">
        <walk from="E114" to="-E161"/>
    </person>
    <person id="233" depart="83.88">
        <walk from="-E206" to="E189"/>
    </person>
    <person id="234" depart="84.24">
        <walk from="E195" to="-E129"/>
    </person>
    <person id="235" depart="84.60">
        <walk from="-E53" to="E115"/>
    </person>
    <person id="236" depart="84.96">
        <walk from="-E58" to="-E195"/>
    </person>
    <person id="237" depart="85.32">
        <walk from="-E6" to="E53"/>
    </person>
    <person id="238" depart="85.68">
        <walk from="E135" to="E19"/>
    </person>
    <person id="239" depart="86.04">
        <walk from="E3" to="E222"/>
    </person>
    <person id="240" depart="86.40">
        <walk from="-E40" to="-E100"/>
    </person>
    <person id="241" depart="86.76">
        <walk from="-E263" to="E217"/>
    </person>
    <person id="242" depart="87.12">
        <walk from="E28" to="E77"/>
    </person>
    <person id="243" depart="87.48">
        <walk from="-E59" to="E214"/>
    </person>
    <person id="244" depart="87.84">
        <walk from="E117" to="E145"/>
    </person>
    <person id="245" depart="88.20">
        <walk from="-E200" to="-E200"/>
    </person>
    <person id="246" depart="88.56">
        <walk from="-E67" to="-E111"/>
    </person>
    <person id="247" depart="88.92">
        <walk from="-E256" to="E181"/>
    </person>
    <person id="248" depart="89.28">
        <walk from="-E51" to="-E175"/>
    </person>
    <person id="249" depart="89.64">
        <walk from="-E80" to="-E158"/>
    </person>
    <person id="250" depart="90.00">
        <walk from="E154" to="-E110"/>
    </person>
    <person id="251" depart="90.36">
        <walk from="-E47" to="E126"/>
    </person>
    <person id="252" depart="90.72">
        <walk from="-E110" to="E164"/>
    </person>
    <person id="253" depart="91.08">
        <walk from="-E160" to="-E78"/>
    </person>
    <person id="254" depart="91.44">
        <walk from="-E121" to="-E4"/>
    </person>
    <person id="255" depart="91.80">
        <walk from="-E198" to="-E251"/>
    </person>
    <person id="256" depart="92.16">
        <walk from="E220" to="-E4"/>
    </person>
    <person id="257" depart="92.52">
        <walk from="E216" to="E255"/>
    </person>
    <person id="258" depart="92.88">
        <walk from="-E216" to="-E136"/>
    </person>
    <person id="259" depart="93.24">
        <walk from="-E107" to="E114"/>
    </person>
    <person id="260" depart="93.60">
        <walk from="E99" to="-E262"/>
    </person>
    <person id="261" depart="93.96">
        <walk from="E168" to="E230"/>
    </person>
    <person id="262" depart="94.32">
        <walk from="E169" to="E217"/>
    </person>
    <person id="263" depart="94.68">
        <walk from="E75" to="-E191"/>
    </person>
    <person id="264" depart="95.04">
        <walk from="-E107" to="-E169"/>
    </person>
    <person id="265" depart="95.40">
        <walk from="-E157" to="E177"/>
    </person>
    <person id="266" depart="95.76">
        <walk from="E126" to="-E20"/>
    </person>
    <person id="267" depart="96.12">
        <walk from="E191" to="E223"/>
    </person>
    <person id="268" depart="96.48">
        <walk from="-E176" to="E147"/>
    </person>
    <person id="269" depart="96.84">
        <walk from="E214" to="-E151"/>
    </person>
    <person id="270" depart="97.20">
        <walk from="E249" to="E82"/>
    </person>
    <person id="271" depart="97.56">
        <walk from="-E148" to="-E11"/>
    </person>
    <person id="272" depart="97.92">
        <walk from="-E244" to="E180"/>
    </person>
    <person id="273" depart="98.28">
        <walk from="E79" to="-E48"/>
    </person>
    <person id="274" depart="98.64">
        <walk from="E199" to="-E133"/>
    </person>
    <person id="275" depart="99.00">
        <walk from="E187" to="E156"/>
    </person>
    <person id="276" depart="99.36">
        <walk from="-E145" to="E226"/>
    </person>
    <person id="277" depart="99.72">
        <walk from="E27" to="E143"/>
    </person>
    <person id="278" depart="100.08">
        <walk from="-E154" to="E91"/>
    </person>
    <person id="279" depart="100.44">
        <walk from="E230" to="-E261"/>
    </person>
    <person id="280" depart="100.80">
        <walk from="-E63" to="-E35"/>
    </person>
    <person id="281" depart="101.16">
        <walk from="E0" to="-E259"/>
    </person>
    <person id="282" depart="101.52">
        <walk from="E263" to="E250"/>
    </person>
    <person id="283" depart="101.88">
        <walk from="-E147" to="E80"/>
    </person>
    <person id="284" depart="102.24">
        <walk from="E160" to="E253"/>
    </person>
    <person id="285" depart="102.60">
        <walk from="E195" to="-E67"/>
    </person>
    <person id="286" depart="102.96">
        <walk from="E207" to="E82"/>
    </person>
    <person id="287" depart="103.32">
        <walk from="-E225" to="E243"/>
    </person>
    <person id="288" depart="103.68">
        <walk from="E113" to="-E89"/>
    </person>
    <person id="289" depart="104.04">
        <walk from="-E67" to="E206"/>
    </person>
    <person id="290" depart="104.40">
        <walk from="-E224" to="E27"/>
    </person>
    <person id="291" depart="104.76">
        <walk from="E254" to="-E139"/>
    </person>
    <person id="292" depart="105.12">
        <walk from="E41" to="-E212"/>
    </person>
    <person id="293" depart="105.48">
        <walk from="-E8" to="E148"/>
    </person>
    <person id="294" depart="105.84">
        <walk from="-E4" to="-E111"/>
    </person>
    <person id="295" depart="106.20">
        <walk from="E27" to="-E183"/>
    </person>
    <person id="296" depart="106.56">
        <walk from="-E198" to="E239"/>
    </person>
    <person id="297" depart="106.92">
        <walk from="-E258" to="E41"/>
    </person>
    <person id="298" depart="107.28">
        <walk from="E192" to="-E228"/>
    </person>
    <person id="299" depart="107.64">
        <walk from="-E102" to="E74"/>
    </person>
    <person id="300" depart="108.00">
        <walk from="-E138" to="E200"/>
    </person>
    <person id="301" depart="108.36">
        <walk from="-E90" to="E219"/>
    </person>
    <person id="302" depart="108.72">
        <walk from="E187" to="E165"/>
    </person>
    <person id="303" depart="109.08">
        <walk from="-E92" to="E236"/>
    </person>
    <person id="304" depart="109.44">
        <walk from="-E141" to="-E201"/>
    </person>
    <person id="305" depart="109.80">
        <walk from="E188" to="-E241"/>
    </person>
    <person id="306" depart="110.16">
        <walk from="E134" to="-E83"/>
    </person>
    <person id="307" depart="110.52">
        <walk from="E11" to="-E62"/>
    </person>
    <person id="308" depart="110.88">
        <walk from="E213" to="-E253"/>
    </person>
    <person id="309" depart="111.24">
        <walk from="E193" to="-E225"/>
    </person>
    <person id="310" depart="111.60">
        <walk from="-E216" to="-E154"/>
    </person>
    <person id="311" depart="111.96">
        <walk from="-E188" to="-E153"/>
    </person>
    <person id="312" depart="112.32">
        <walk from="E112" to="E221"/>
    </person>
    <person id="313" depart="112.68">
        <walk from="-E184" to="-E2"/>
    </person>