<?xml version="1.0" encoding="UTF-8"?>

<!-- generated on 2022-10-10 15:05:55 by Eclipse SUMO netedit Version 1.14.1
-->

<routes xmlns:xsi="http://www.w3.org/2001/XMLSchema-instance" xsi:noNamespaceSchemaLocation="http://sumo.dlr.de/xsd/routes_file.xsd">
    <!-- Vehicles, persons and containers (sorted by depart) -->
    <flow id="f_0" begin="0.00" departLane="best" fromJunction="J3" toJunction="J1" end="3600.00" vehsPerHour="1800.00"/>
    <flow id="f_1" begin="0.00" departLane="best" fromJunction="J3" toJunction="J0" end="3600.00" vehsPerHour="1800.00"/>
    <flow id="f_10" begin="0.00" fromJunction="J78" toJunction="J4" end="3600.00" vehsPerHour="1800.00"/>
    <flow id="f_11" begin="0.00" fromJunction="J18" toJunction="J17" end="3600.00" vehsPerHour="1800.00"/>
    <flow id="f_2" begin="0.00" departLane="best" fromJunction="J2" toJunction="J1" end="3600.00" vehsPerHour="1800.00"/>
    <flow id="f_3" begin="0.00" departLane="best" fromJunction="J2" toJunction="J0" end="3600.00" vehsPerHour="1800.00"/>
    <flow id="f_4" begin="0.00" fromJunction="J0" toJunction="J2" end="3600.00" vehsPerHour="1800.00"/>
    <flow id="f_5" begin="0.00" fromJunction="J0" toJunction="J3" end="3600.00" vehsPerHour="1800.00"/>
    <flow id="f_6" begin="0.00" fromJunction="J1" toJunction="J2" end="3600.00" vehsPerHour="1800.00"/>
    <flow id="f_7" begin="0.00" fromJunction="J1" toJunction="J3" end="3600.00" vehsPerHour="1800.00"/>
    <flow id="f_8" begin="0.00" fromJunction="J17" toJunction="J18" end="3600.00" vehsPerHour="1800.00"/>
    <flow id="f_9" begin="0.00" fromJunction="J4" toJunction="J78" end="3600.00" vehsPerHour="1800.00"/>
</routes>
