<?xml version="1.0" encoding="UTF-8"?>

<!-- generated on 2022-10-10 13:42:41 by Eclipse SUMO netedit Version 1.14.1
<configuration xmlns:xsi="http://www.w3.org/2001/XMLSchema-instance" xsi:noNamespaceSchemaLocation="http://sumo.dlr.de/xsd/netconvertConfiguration.xsd">

    <input>
        <sumo-net-file value="10x10.net.xml"/>
    </input>

    <output>
        <output-file value="10x10.net.xml"/>
    </output>

    <processing>
        <geometry.min-radius.fix.railways value="false"/>
        <geometry.max-grade.fix value="false"/>
        <offset.disable-normalization value="true"/>
        <lefthand value="false"/>
    </processing>

    <junctions>
        <no-turnarounds value="true"/>
        <junctions.corner-detail value="5"/>
        <junctions.limit-turn-speed value="5.5"/>
        <rectangular-lane-cut value="false"/>
    </junctions>

    <pedestrian>
        <walkingareas value="false"/>
    </pedestrian>

    <netedit>
        <route-files value="/home/frederic/Desktop/Sumo/Sumo%20Project%202/trash.rou.xml"/>
    </netedit>

</configuration>
-->

<net version="1.9" junctionCornerDetail="5" limitTurnSpeed="5.50" xmlns:xsi="http://www.w3.org/2001/XMLSchema-instance" xsi:noNamespaceSchemaLocation="http://sumo.dlr.de/xsd/net_file.xsd">

    <location netOffset="0.00,0.00" convBoundary="-250.00,-875.00,1375.00,2003.68" origBoundary="-10000000000.00,-10000000000.00,10000000000.00,10000000000.00" projParameter="!"/>

    <edge id=":J0_0" function="internal">
        <lane id=":J0_0_0" index="0" speed="13.89" length="95.84" shape="-1.60,-838.68 5.47,-854.58 23.98,-856.19 49.84,-847.62 78.98,-832.95"/>
    </edge>
    <edge id=":J0_1" function="internal">
        <lane id=":J0_1_0" index="0" speed="13.89" length="9.68" shape="-1.60,-838.68 2.38,-847.51"/>
    </edge>
    <edge id=":J0_2" function="internal">
        <lane id=":J0_2_0" index="0" speed="13.89" length="2.06" shape="-1.60,-838.68 0.45,-838.94"/>
    </edge>
    <edge id=":J0_3" function="internal">
        <lane id=":J0_3_0" index="0" speed="13.89" length="8.12" shape="-1.60,-838.68 1.81,-846.05"/>
    </edge>
    <edge id=":J0_4" function="internal">
        <lane id=":J0_4_0" index="0" speed="13.89" length="15.29" shape="-1.60,-838.68 3.89,-852.95"/>
    </edge>
    <edge id=":J0_5" function="internal">
        <lane id=":J0_5_0" index="0" speed="12.07" length="11.58" shape="-1.60,-838.68 2.70,-849.43"/>
    </edge>
    <edge id=":J0_6" function="internal">
        <lane id=":J0_6_0" index="0" speed="10.01" length="8.43" shape="-1.60,-838.68 1.68,-846.45"/>
    </edge>
    <edge id=":J0_7" function="internal">
        <lane id=":J0_7_0" index="0" speed="8.00" length="5.71" shape="-1.60,-838.68 0.74,-843.89"/>
    </edge>
    <edge id=":J0_8" function="internal">
        <lane id=":J0_8_0" index="0" speed="5.96" length="3.34" shape="-1.60,-838.68 -0.15,-841.69"/>
    </edge>
    <edge id=":J0_90" function="internal">
        <lane id=":J0_90_0" index="0" speed="13.89" length="84.66" shape="2.38,-847.51 5.40,-854.22 23.58,-854.80 48.72,-844.90 76.61,-829.01"/>
    </edge>
    <edge id=":J0_91" function="internal">
        <lane id=":J0_91_0" index="0" speed="13.89" length="75.44" shape="0.45,-838.94 9.16,-840.05 33.37,-835.99 58.93,-829.67 73.76,-824.28"/>
    </edge>
    <edge id=":J0_92" function="internal">
        <lane id=":J0_92_0" index="0" speed="13.89" length="83.06" shape="1.81,-846.05 5.13,-853.25 22.33,-851.03 45.48,-837.63 70.07,-818.69"/>
    </edge>
    <edge id=":J0_93" function="internal">
        <lane id=":J0_93_0" index="0" speed="13.89" length="59.79" shape="3.89,-852.95 17.65,-851.50 35.65,-839.83 53.84,-823.42"/>
    </edge>
    <edge id=":J0_94" function="internal">
        <lane id=":J0_94_0" index="0" speed="12.07" length="45.10" shape="2.70,-849.43 2.78,-849.64 13.54,-849.12 27.09,-840.66 39.84,-827.76"/>
    </edge>
    <edge id=":J0_95" function="internal">
        <lane id=":J0_95_0" index="0" speed="10.01" length="32.34" shape="1.68,-846.45 1.79,-846.72 9.90,-846.88 19.64,-841.17 27.91,-831.60"/>
    </edge>
    <edge id=":J0_96" function="internal">
        <lane id=":J0_96_0" index="0" speed="8.00" length="21.37" shape="0.74,-843.89 0.86,-844.15 6.57,-844.69 13.05,-841.26 17.80,-834.80"/>
    </edge>
    <edge id=":J0_97" function="internal">
        <lane id=":J0_97_0" index="0" speed="5.96" length="11.85" shape="-0.15,-841.69 -0.08,-841.84 3.35,-842.44 7.00,-840.80 9.19,-837.21"/>
    </edge>
    <edge id=":J0_9" function="internal">
        <lane id=":J0_9_0" index="0" speed="7.02" length="21.88" shape="6.05,-836.59 4.10,-845.06 2.71,-848.24 1.88,-846.11 1.60,-838.68"/>
    </edge>
    <edge id=":J0_10" function="internal">
        <lane id=":J0_10_0" index="0" speed="13.89" length="91.32" shape="6.05,-836.59 9.54,-853.38 26.62,-855.12 51.65,-846.69 78.98,-832.95"/>
    </edge>
    <edge id=":J0_11" function="internal">
        <lane id=":J0_11_0" index="0" speed="13.89" length="89.79" shape="6.05,-836.59 9.44,-853.01 26.18,-853.67 50.50,-843.90 76.61,-829.01"/>
    </edge>
    <edge id=":J0_12" function="internal">
        <lane id=":J0_12_0" index="0" speed="13.89" length="88.27" shape="6.05,-836.59 9.30,-852.58 25.61,-851.91 49.07,-840.51 73.76,-824.28"/>
    </edge>
    <edge id=":J0_13" function="internal">
        <lane id=":J0_13_0" index="0" speed="13.17" length="67.67" shape="6.05,-836.59 14.37,-838.19 34.86,-832.97 56.95,-825.09 70.07,-818.69"/>
    </edge>
    <edge id=":J0_14" function="internal">
        <lane id=":J0_14_0" index="0" speed="12.73" length="65.65" shape="6.05,-836.59 8.50,-848.66 20.62,-847.43 37.40,-837.49 53.84,-823.42"/>
    </edge>
    <edge id=":J0_15" function="internal">
        <lane id=":J0_15_0" index="0" speed="10.56" length="46.81" shape="6.05,-836.59 8.02,-845.36 16.97,-844.99 28.91,-838.21 39.84,-827.76"/>
    </edge>
    <edge id=":J0_16" function="internal">
        <lane id=":J0_16_0" index="0" speed="8.40" length="30.51" shape="6.05,-836.59 7.53,-842.46 13.66,-842.68 21.45,-838.60 27.91,-831.60"/>
    </edge>
    <edge id=":J0_17" function="internal">
        <lane id=":J0_17_0" index="0" speed="6.17" length="16.48" shape="6.05,-836.59 7.00,-839.90 10.52,-840.42 14.75,-838.58 17.80,-834.80"/>
    </edge>
    <edge id=":J0_18" function="internal">
        <lane id=":J0_18_0" index="0" speed="7.37" length="24.45" shape="14.83,-833.61 10.79,-843.07 8.50,-846.82 7.97,-844.87 9.19,-837.21"/>
    </edge>
    <edge id=":J0_19" function="internal">
        <lane id=":J0_19_0" index="0" speed="8.94" length="34.31" shape="14.83,-833.61 9.04,-846.33 4.91,-851.42 2.43,-848.87 1.60,-838.68"/>
    </edge>
    <edge id=":J0_20" function="internal">
        <lane id=":J0_20_0" index="0" speed="13.89" length="84.36" shape="14.83,-833.61 14.89,-849.90 30.26,-852.18 53.95,-845.01 78.98,-832.95"/>
    </edge>
    <edge id=":J0_21" function="internal">
        <lane id=":J0_21_0" index="0" speed="13.89" length="81.70" shape="14.83,-833.61 14.99,-848.94 29.98,-850.13 52.84,-841.92 76.61,-829.01"/>
    </edge>
    <edge id=":J0_22" function="internal">
        <lane id=":J0_22_0" index="0" speed="13.87" length="78.91" shape="14.83,-833.61 15.05,-847.85 29.57,-847.71 51.44,-838.19 73.76,-824.28"/>
    </edge>
    <edge id=":J0_23" function="internal">
        <lane id=":J0_23_0" index="0" speed="13.39" length="75.84" shape="14.83,-833.61 15.05,-846.59 28.87,-844.85 49.48,-833.76 70.07,-818.69"/>
    </edge>
    <edge id=":J0_24" function="internal">
        <lane id=":J0_24_0" index="0" speed="11.14" length="53.91" shape="14.83,-833.61 15.19,-843.02 25.28,-842.25 39.90,-834.62 53.84,-823.42"/>
    </edge>
    <edge id=":J0_25" function="internal">
        <lane id=":J0_25_0" index="0" speed="8.85" length="34.75" shape="14.83,-833.61 15.25,-839.85 22.01,-839.83 31.43,-835.24 39.84,-827.76"/>
    </edge>
    <edge id=":J0_26" function="internal">
        <lane id=":J0_26_0" index="0" speed="6.42" length="18.20" shape="14.83,-833.61 15.19,-837.06 18.93,-837.53 23.89,-835.53 27.91,-831.60"/>
    </edge>
    <edge id=":J0_27" function="internal">
        <lane id=":J0_27_0" index="0" speed="7.85" length="28.27" shape="25.16,-829.95 18.61,-840.42 15.19,-844.72 14.93,-842.84 17.80,-834.80"/>
    </edge>
    <edge id=":J0_28" function="internal">
        <lane id=":J0_28_0" index="0" speed="9.40" length="38.72" shape="25.16,-829.95 16.00,-844.02 10.28,-849.92 8.01,-847.65 9.19,-837.21"/>
    </edge>
    <edge id=":J0_29" function="internal">
        <lane id=":J0_29_0" index="0" speed="10.41" length="44.21" shape="25.16,-829.95 14.85,-845.22 7.49,-851.77 3.07,-849.59 1.60,-838.68"/>
    </edge>
    <edge id=":J0_30" function="internal">
        <lane id=":J0_30_0" index="0" speed="13.11" length="71.79" shape="25.16,-829.95 23.39,-843.30 36.48,-846.53 57.36,-842.23 78.98,-832.95"/>
    </edge>
    <edge id=":J0_31" function="internal">
        <lane id=":J0_31_0" index="0" speed="12.70" length="68.64" shape="25.16,-829.95 23.59,-842.27 36.28,-844.35 56.27,-838.99 76.61,-829.01"/>
    </edge>
    <edge id=":J0_32" function="internal">
        <lane id=":J0_32_0" index="0" speed="12.24" length="65.31" shape="25.16,-829.95 23.75,-841.12 35.92,-841.78 54.87,-835.11 73.76,-824.28"/>
    </edge>
    <edge id=":J0_33" function="internal">
        <lane id=":J0_33_0" index="0" speed="11.74" length="61.76" shape="25.16,-829.95 23.82,-839.81 35.24,-838.77 52.86,-830.50 70.07,-818.69"/>
    </edge>
    <edge id=":J0_34" function="internal">
        <lane id=":J0_34_0" index="0" speed="9.33" length="39.59" shape="25.16,-829.95 24.47,-836.47 32.02,-836.27 43.30,-831.29 53.84,-823.42"/>
    </edge>
    <edge id=":J0_35" function="internal">
        <lane id=":J0_35_0" index="0" speed="6.71" length="20.27" shape="25.16,-829.95 24.94,-833.50 28.98,-833.92 34.78,-831.81 39.84,-827.76"/>
    </edge>
    <edge id=":J0_36" function="internal">
        <lane id=":J0_36_0" index="0" speed="8.44" length="33.34" shape="37.34,-825.76 27.85,-837.25 23.12,-842.05 23.14,-840.17 27.91,-831.60"/>
    </edge>
    <edge id=":J0_37" function="internal">
        <lane id=":J0_37_0" index="0" speed="10.00" length="44.99" shape="37.34,-825.76 24.18,-841.25 16.53,-847.92 14.41,-845.77 17.80,-834.80"/>
    </edge>
    <edge id=":J0_38" function="internal">
        <lane id=":J0_38_0" index="0" speed="10.96" length="50.58" shape="37.34,-825.76 22.65,-842.64 13.06,-850.18 8.57,-848.37 9.19,-837.21"/>
    </edge>
    <edge id=":J0_39" function="internal">
        <lane id=":J0_39_0" index="0" speed="11.95" length="55.46" shape="37.34,-825.76 21.71,-843.32 10.54,-851.33 3.83,-849.78 1.60,-838.68"/>
    </edge>
    <edge id=":J0_40" function="internal">
        <lane id=":J0_40_0" index="0" speed="11.41" length="56.99" shape="37.34,-825.76 34.78,-836.22 44.97,-840.51 61.75,-839.22 78.98,-832.95"/>
    </edge>
    <edge id=":J0_41" function="internal">
        <lane id=":J0_41_0" index="0" speed="10.93" length="53.14" shape="37.34,-825.76 35.10,-835.11 44.89,-838.14 60.72,-835.80 76.61,-829.01"/>
    </edge>
    <edge id=":J0_42" function="internal">
        <lane id=":J0_42_0" index="0" speed="9.02" length="36.45" shape="37.34,-825.76 73.76,-824.28"/>
    </edge>
    <edge id=":J0_43" function="internal">
        <lane id=":J0_43_0" index="0" speed="8.55" length="33.48" shape="37.34,-825.76 70.07,-818.69"/>
    </edge>
    <edge id=":J0_44" function="internal">
        <lane id=":J0_44_0" index="0" speed="6.12" length="16.67" shape="37.34,-825.76 53.84,-823.42"/>
    </edge>
    <edge id=":J0_45" function="internal">
        <lane id=":J0_45_0" index="0" speed="9.12" length="39.66" shape="51.58,-821.16 38.74,-833.68 32.50,-838.95 32.87,-836.98 39.84,-827.76"/>
    </edge>
    <edge id=":J0_46" function="internal">
        <lane id=":J0_46_0" index="0" speed="10.73" length="53.04" shape="51.58,-821.16 33.78,-838.13 23.90,-845.53 21.94,-843.35 27.91,-831.60"/>
    </edge>
    <edge id=":J0_47" function="internal">
        <lane id=":J0_47_0" index="0" speed="11.64" length="59.04" shape="51.58,-821.16 31.77,-839.71 19.54,-848.17 14.88,-846.53 17.80,-834.80"/>
    </edge>
    <edge id=":J0_48" function="internal">
        <lane id=":J0_48_0" index="0" speed="12.56" length="63.91" shape="51.58,-821.16 30.57,-840.53 16.49,-849.66 9.37,-848.55 9.19,-837.21"/>
    </edge>
    <edge id=":J0_49" function="internal">
        <lane id=":J0_49_0" index="0" speed="13.60" length="68.73" shape="51.58,-821.16 29.71,-841.00 14.10,-850.53 4.72,-849.76 1.60,-838.68"/>
    </edge>
    <edge id=":J0_50" function="internal">
        <lane id=":J0_50_0" index="0" speed="8.21" length="29.83" shape="51.58,-821.16 78.98,-832.95"/>
    </edge>
    <edge id=":J0_51" function="internal">
        <lane id=":J0_51_0" index="0" speed="7.67" length="26.23" shape="51.58,-821.16 76.61,-829.01"/>
    </edge>
    <edge id=":J0_52" function="internal">
        <lane id=":J0_52_0" index="0" speed="7.06" length="22.40" shape="51.58,-821.16 73.76,-824.28"/>
    </edge>
    <edge id=":J0_53" function="internal">
        <lane id=":J0_53_0" index="0" speed="6.42" length="18.66" shape="51.58,-821.16 70.07,-818.69"/>
    </edge>
    <edge id=":J0_54" function="internal">
        <lane id=":J0_54_0" index="0" speed="9.88" length="47.26" shape="68.02,-816.23 51.41,-829.79 43.50,-835.51 44.32,-833.38 53.84,-823.42"/>
    </edge>
    <edge id=":J0_55" function="internal">
        <lane id=":J0_55_0" index="0" speed="11.55" length="62.85" shape="68.02,-816.23 44.93,-834.73 32.54,-842.81 30.84,-840.49 39.84,-827.76"/>
    </edge>
    <edge id=":J0_56" function="internal">
        <lane id=":J0_56_0" index="0" speed="12.43" length="69.45" shape="68.02,-816.23 42.34,-836.50 27.10,-845.82 22.29,-844.18 27.91,-831.60"/>
    </edge>
    <edge id=":J0_57" function="internal">
        <lane id=":J0_57_0" index="0" speed="13.28" length="74.53" shape="68.02,-816.23 40.81,-837.45 23.37,-847.62 15.70,-846.74 17.80,-834.80"/>
    </edge>
    <edge id=":J0_58" function="internal">
        <lane id=":J0_58_0" index="0" speed="13.89" length="79.29" shape="68.02,-816.23 39.76,-838.03 20.53,-848.80 10.34,-848.52 9.19,-837.21"/>
    </edge>
    <edge id=":J0_59" function="internal">
        <lane id=":J0_59_0" index="0" speed="13.89" length="84.25" shape="68.02,-816.23 38.96,-838.39 18.21,-849.52 5.75,-849.62 1.60,-838.68"/>
    </edge>
    <edge id=":J0_60" function="internal">
        <lane id=":J0_60_0" index="0" speed="6.73" length="19.99" shape="68.02,-816.23 78.98,-832.95"/>
    </edge>
    <edge id=":J0_61" function="internal">
        <lane id=":J0_61_0" index="0" speed="5.94" length="15.39" shape="68.02,-816.23 76.61,-829.01"/>
    </edge>
    <edge id=":J0_62" function="internal">
        <lane id=":J0_62_0" index="0" speed="4.88" length="9.88" shape="68.02,-816.23 73.76,-824.28"/>
    </edge>
    <edge id=":J0_63" function="internal">
        <lane id=":J0_63_0" index="0" speed="9.83" length="47.02" shape="72.11,-821.53 57.69,-831.56 52.55,-834.42 56.68,-830.14 70.07,-818.69"/>
    </edge>
    <edge id=":J0_64" function="internal">
        <lane id=":J0_64_0" index="0" speed="11.57" length="63.91" shape="72.11,-821.53 49.47,-837.00 38.89,-842.47 40.34,-837.94 53.84,-823.42"/>
    </edge>
    <edge id=":J0_65" function="internal">
        <lane id=":J0_65_0" index="0" speed="12.20" length="68.44" shape="72.11,-821.53 46.22,-838.97 32.21,-845.82 30.09,-842.08 39.84,-827.76"/>
    </edge>
    <edge id=":J0_66" function="internal">
        <lane id=":J0_66_0" index="0" speed="12.89" length="72.58" shape="72.11,-821.53 44.30,-840.05 27.67,-847.90 22.20,-845.08 27.91,-831.60"/>
    </edge>
    <edge id=":J0_67" function="internal">
        <lane id=":J0_67_0" index="0" speed="13.69" length="76.86" shape="72.11,-821.53 42.99,-840.73 24.23,-849.34 15.84,-847.37 17.80,-834.80"/>
    </edge>
    <edge id=":J0_68" function="internal">
        <lane id=":J0_68_0" index="0" speed="13.89" length="81.33" shape="72.11,-821.53 42.02,-841.19 21.50,-850.36 10.56,-849.03 9.19,-837.21"/>
    </edge>
    <edge id=":J0_69" function="internal">
        <lane id=":J0_69_0" index="0" speed="13.89" length="86.19" shape="72.11,-821.53 41.26,-841.49 19.23,-851.00 6.01,-850.06 1.60,-838.68"/>
    </edge>
    <edge id=":J0_70" function="internal">
        <lane id=":J0_70_0" index="0" speed="5.56" length="13.33" shape="72.11,-821.53 78.98,-832.95"/>
    </edge>
    <edge id=":J0_71" function="internal">
        <lane id=":J0_71_0" index="0" speed="4.63" length="8.73" shape="72.11,-821.53 76.61,-829.01"/>
    </edge>
    <edge id=":J0_72" function="internal">
        <lane id=":J0_72_0" index="0" speed="8.82" length="37.63" shape="74.96,-826.27 62.96,-833.60 58.76,-835.71 62.36,-832.60 73.76,-824.28"/>
    </edge>
    <edge id=":J0_73" function="internal">
        <lane id=":J0_73_0" index="0" speed="11.76" length="66.82" shape="74.96,-826.27 53.69,-838.89 45.78,-841.84 51.25,-835.11 70.07,-818.69"/>
    </edge>
    <edge id=":J0_74" function="internal">
        <lane id=":J0_74_0" index="0" speed="12.23" length="69.99" shape="74.96,-826.27 49.68,-841.06 37.73,-845.52 39.12,-839.64 53.84,-823.42"/>
    </edge>
    <edge id=":J0_75" function="internal">
        <lane id=":J0_75_0" index="0" speed="12.63" length="71.71" shape="74.96,-826.27 47.32,-842.26 32.26,-847.84 29.76,-843.01 39.84,-827.76"/>
    </edge>
    <edge id=":J0_76" function="internal">
        <lane id=":J0_76_0" index="0" speed="13.23" length="74.75" shape="74.96,-826.27 45.71,-843.04 28.11,-849.52 22.18,-845.71 27.91,-831.60"/>
    </edge>
    <edge id=":J0_77" function="internal">
        <lane id=":J0_77_0" index="0" speed="13.89" length="78.54" shape="74.96,-826.27 44.51,-843.59 24.84,-850.79 15.94,-847.86 17.80,-834.80"/>
    </edge>
    <edge id=":J0_78" function="internal">
        <lane id=":J0_78_0" index="0" speed="13.89" length="82.80" shape="74.96,-826.27 43.60,-843.98 22.18,-851.71 10.71,-849.45 9.19,-837.21"/>
    </edge>
    <edge id=":J0_79" function="internal">
        <lane id=":J0_79_0" index="0" speed="13.89" length="87.58" shape="74.96,-826.27 42.86,-844.23 19.94,-852.29 6.18,-850.44 1.60,-838.68"/>
    </edge>
    <edge id=":J0_80" function="internal">
        <lane id=":J0_80_0" index="0" speed="4.42" length="7.80" shape="74.96,-826.27 78.98,-832.95"/>
    </edge>
    <edge id=":J0_81" function="internal">
        <lane id=":J0_81_0" index="0" speed="7.58" length="27.26" shape="77.33,-830.21 68.36,-835.09 65.25,-836.52 68.00,-834.49 76.61,-829.01"/>
    </edge>
    <edge id=":J0_82" function="internal">
        <lane id=":J0_82_0" index="0" speed="11.26" length="61.59" shape="77.33,-830.21 57.08,-840.97 49.73,-843.56 55.29,-838.00 73.76,-824.28"/>
    </edge>
    <edge id=":J0_83" function="internal">
        <lane id=":J0_83_0" index="0" speed="12.47" length="73.95" shape="77.33,-830.21 53.16,-842.66 43.89,-844.90 49.53,-836.90 70.07,-818.69"/>
    </edge>
    <edge id=":J0_84" function="internal">
        <lane id=":J0_84_0" index="0" speed="12.65" length="73.62" shape="77.33,-830.21 50.32,-843.98 37.40,-847.43 38.57,-840.58 53.84,-823.42"/>
    </edge>
    <edge id=":J0_85" function="internal">
        <lane id=":J0_85_0" index="0" speed="12.97" length="74.22" shape="77.33,-830.21 48.36,-844.85 32.45,-849.32 29.62,-843.62 39.84,-827.76"/>
    </edge>
    <edge id=":J0_86" function="internal">
        <lane id=":J0_86_0" index="0" speed="13.54" length="76.67" shape="77.33,-830.21 46.91,-845.48 28.53,-850.80 22.20,-846.17 27.91,-831.60"/>
    </edge>
    <edge id=":J0_87" function="internal">
        <lane id=":J0_87_0" index="0" speed="13.89" length="80.15" shape="77.33,-830.21 45.79,-845.95 25.36,-851.96 16.03,-848.24 17.80,-834.80"/>
    </edge>
    <edge id=":J0_88" function="internal">
        <lane id=":J0_88_0" index="0" speed="13.89" length="84.26" shape="77.33,-830.21 44.91,-846.29 22.75,-852.82 10.84,-849.79 9.19,-837.21"/>
    </edge>
    <edge id=":J0_89" function="internal">
        <lane id=":J0_89_0" index="0" speed="13.89" length="88.96" shape="77.33,-830.21 44.20,-846.52 20.53,-853.36 6.33,-850.75 1.60,-838.68"/>
    </edge>
    <edge id=":J1_0" function="internal">
        <lane id=":J1_0_0" index="0" speed="6.67" length="16.06" shape="1126.60,1988.27 1126.66,1991.31 1126.74,1996.96 1126.70,2002.28 1126.40,2004.32"/>
    </edge>
    <edge id=":J1_1" function="internal">
        <lane id=":J1_1_0" index="0" speed="6.58" length="16.53" shape="1126.60,1988.27 1126.55,1993.25 1126.41,1998.78 1126.22,2003.19 1126.00,2004.78"/>
    </edge>
    <edge id=":J1_2" function="internal">
        <lane id=":J1_2_0" index="0" speed="13.89" length="94.01" shape="1126.60,1988.27 1039.03,1954.07"/>
    </edge>
    <edge id=":J1_3" function="internal">
        <lane id=":J1_3_0" index="0" speed="13.89" length="5.06" shape="1126.60,1988.27 1121.99,1986.19"/>
    </edge>
    <edge id=":J1_4" function="internal">
        <lane id=":J1_4_0" index="0" speed="13.89" length="4.60" shape="1126.60,1988.27 1122.54,1986.11"/>
    </edge>
    <edge id=":J1_5" function="internal">
        <lane id=":J1_5_0" index="0" speed="13.89" length="9.10" shape="1126.60,1988.27 1118.48,1984.18"/>
    </edge>
    <edge id=":J1_6" function="internal">
        <lane id=":J1_6_0" index="0" speed="13.57" length="9.29" shape="1126.60,1988.27 1118.82,1984.22 1118.40,1983.92"/>
    </edge>
    <edge id=":J1_7" function="internal">
        <lane id=":J1_7_0" index="0" speed="8.64" length="31.91" shape="1126.60,1988.27 1124.33,1989.47 1119.08,1982.83 1113.21,1972.96 1109.08,1964.52"/>
    </edge>
    <edge id=":J1_8" function="internal">
        <lane id=":J1_8_0" index="0" speed="8.16" length="30.29" shape="1126.60,1988.27 1125.16,1989.18 1121.86,1981.85 1118.23,1971.21 1115.81,1962.21"/>
    </edge>
    <edge id=":J1_90" function="internal">
        <lane id=":J1_90_0" index="0" speed="13.89" length="88.40" shape="1121.99,1986.19 1041.48,1949.69"/>
    </edge>
    <edge id=":J1_91" function="internal">
        <lane id=":J1_91_0" index="0" speed="13.89" length="88.54" shape="1122.54,1986.11 1044.43,1944.42"/>
    </edge>
    <edge id=":J1_92" function="internal">
        <lane id=":J1_92_0" index="0" speed="13.89" length="75.38" shape="1118.48,1984.18 1116.36,1983.12 1093.33,1969.01 1069.01,1953.39 1054.93,1943.69"/>
    </edge>
    <edge id=":J1_93" function="internal">
        <lane id=":J1_93_0" index="0" speed="13.57" length="59.12" shape="1118.40,1983.92 1101.24,1971.85 1082.47,1957.73 1071.16,1948.42"/>
    </edge>
    <edge id=":J1_9" function="internal">
        <lane id=":J1_9_0" index="0" speed="13.37" length="66.44" shape="1073.42,1946.16 1095.29,1967.53 1110.90,1981.68 1120.28,1988.59 1123.40,1988.27"/>
    </edge>
    <edge id=":J1_10" function="internal">
        <lane id=":J1_10_0" index="0" speed="11.57" length="58.24" shape="1073.42,1946.16 1093.35,1965.00 1105.94,1974.35 1111.18,1974.19 1109.08,1964.52"/>
    </edge>
    <edge id=":J1_11" function="internal">
        <lane id=":J1_11_0" index="0" speed="12.56" length="63.91" shape="1073.42,1946.16 1094.43,1965.53 1108.51,1974.66 1115.63,1973.55 1115.81,1962.21"/>
    </edge>
    <edge id=":J1_12" function="internal">
        <lane id=":J1_12_0" index="0" speed="13.00" length="78.86" shape="1073.42,1946.16 1093.03,1966.14 1108.33,1982.57 1119.32,1995.45 1126.00,2004.78"/>
    </edge>
    <edge id=":J1_13" function="internal">
        <lane id=":J1_13_0" index="0" speed="12.68" length="78.71" shape="1073.42,1946.16 1088.84,1961.90 1102.81,1976.84 1115.33,1990.98 1126.40,2004.32"/>
    </edge>
    <edge id=":J1_14" function="internal">
        <lane id=":J1_14_0" index="0" speed="8.89" length="35.29" shape="1073.42,1946.16 1039.03,1954.07"/>
    </edge>
    <edge id=":J1_15" function="internal">
        <lane id=":J1_15_0" index="0" speed="8.43" length="32.13" shape="1073.42,1946.16 1041.48,1949.69"/>
    </edge>
    <edge id=":J1_16" function="internal">
        <lane id=":J1_16_0" index="0" speed="7.95" length="29.04" shape="1073.42,1946.16 1044.43,1944.42"/>
    </edge>
    <edge id=":J1_17" function="internal">
        <lane id=":J1_17_0" index="0" speed="6.42" length="18.66" shape="1073.42,1946.16 1054.93,1943.69"/>
    </edge>
    <edge id=":J1_18" function="internal">
        <lane id=":J1_18_0" index="0" speed="9.88" length="47.26" shape="1056.98,1941.23 1073.59,1954.79 1081.50,1960.51 1080.68,1958.38 1071.16,1948.42"/>
    </edge>
    <edge id=":J1_19" function="internal">
        <lane id=":J1_19_0" index="0" speed="13.89" length="82.39" shape="1056.98,1941.23 1086.04,1964.93 1106.79,1980.67 1119.25,1988.45 1123.40,1988.27"/>
    </edge>
    <edge id=":J1_20" function="internal">
        <lane id=":J1_20_0" index="0" speed="13.23" length="73.96" shape="1056.98,1941.23 1084.30,1962.75 1102.10,1973.80 1110.36,1974.39 1109.08,1964.52"/>
    </edge>
    <edge id=":J1_21" function="internal">
        <lane id=":J1_21_0" index="0" speed="13.89" length="79.29" shape="1056.98,1941.23 1085.24,1963.03 1104.47,1973.80 1114.66,1973.52 1115.81,1962.21"/>
    </edge>
    <edge id=":J1_22" function="internal">
        <lane id=":J1_22_0" index="0" speed="13.89" length="93.89" shape="1056.98,1941.23 1082.65,1962.95 1102.77,1980.70 1117.36,1994.49 1126.40,2004.32"/>
    </edge>
    <edge id=":J1_23" function="internal">
        <lane id=":J1_23_0" index="0" speed="13.89" length="93.97" shape="1056.98,1941.23 1084.46,1964.51 1105.13,1982.87 1118.98,1996.29 1126.00,2004.78"/>
    </edge>
    <edge id=":J1_24" function="internal">
        <lane id=":J1_24_0" index="0" speed="7.03" length="22.07" shape="1056.98,1941.23 1039.03,1954.07"/>
    </edge>
    <edge id=":J1_25" function="internal">
        <lane id=":J1_25_0" index="0" speed="6.31" length="17.65" shape="1056.98,1941.23 1041.48,1949.69"/>
    </edge>
    <edge id=":J1_26" function="internal">
        <lane id=":J1_26_0" index="0" speed="5.46" length="12.94" shape="1056.98,1941.23 1044.43,1944.42"/>
    </edge>
    <edge id=":J1_27" function="internal">
        <lane id=":J1_27_0" index="0" speed="10.24" length="51.28" shape="1046.00,1941.61 1063.43,1953.79 1070.73,1958.19 1067.89,1954.83 1054.93,1943.69"/>
    </edge>
    <edge id=":J1_28" function="internal">
        <lane id=":J1_28_0" index="0" speed="11.97" length="68.57" shape="1046.00,1941.61 1071.65,1959.23 1084.39,1966.24 1084.23,1962.63 1071.16,1948.42"/>
    </edge>
    <edge id=":J1_29" function="internal">
        <lane id=":J1_29_0" index="0" speed="13.89" length="91.38" shape="1046.00,1941.61 1079.86,1965.26 1104.05,1980.92 1118.56,1988.59 1123.40,1988.27"/>
    </edge>
    <edge id=":J1_30" function="internal">
        <lane id=":J1_30_0" index="0" speed="13.89" length="83.30" shape="1046.00,1941.61 1078.25,1963.26 1099.52,1974.29 1109.79,1974.71 1109.08,1964.52"/>
    </edge>
    <edge id=":J1_31" function="internal">
        <lane id=":J1_31_0" index="0" speed="13.89" length="88.61" shape="1046.00,1941.61 1079.10,1963.42 1101.77,1974.13 1114.01,1973.73 1115.81,1962.21"/>
    </edge>
    <edge id=":J1_32" function="internal">
        <lane id=":J1_32_0" index="0" speed="13.89" length="102.07" shape="1046.00,1941.61 1077.48,1964.42 1101.38,1982.48 1117.68,1995.78 1126.40,2004.32"/>
    </edge>
    <edge id=":J1_33" function="internal">
        <lane id=":J1_33_0" index="0" speed="13.89" length="102.11" shape="1046.00,1941.61 1078.63,1965.29 1102.84,1983.71 1118.63,1996.88 1126.00,2004.78"/>
    </edge>
    <edge id=":J1_34" function="internal">
        <lane id=":J1_34_0" index="0" speed="5.73" length="14.28" shape="1046.00,1941.61 1039.03,1954.07"/>
    </edge>
    <edge id=":J1_35" function="internal">
        <lane id=":J1_35_0" index="0" speed="4.74" length="9.26" shape="1046.00,1941.61 1041.48,1949.69"/>
    </edge>
    <edge id=":J1_36" function="internal">
        <lane id=":J1_36_0" index="0" speed="9.70" length="45.96" shape="1043.05,1946.89 1057.68,1955.83 1062.79,1958.40 1058.38,1954.59 1044.43,1944.42"/>
    </edge>
    <edge id=":J1_37" function="internal">
        <lane id=":J1_37_0" index="0" speed="12.11" length="71.01" shape="1043.05,1946.89 1067.38,1961.43 1077.47,1965.75 1073.32,1959.83 1054.93,1943.69"/>
    </edge>
    <edge id=":J1_38" function="internal">
        <lane id=":J1_38_0" index="0" speed="12.62" length="74.65" shape="1043.05,1946.89 1071.39,1963.60 1085.52,1969.43 1085.44,1964.37 1071.16,1948.42"/>
    </edge>
    <edge id=":J1_39" function="internal">
        <lane id=":J1_39_0" index="0" speed="13.89" length="91.48" shape="1043.05,1946.89 1078.20,1968.31 1103.31,1982.35 1118.38,1989.00 1123.40,1988.27"/>
    </edge>
    <edge id=":J1_40" function="internal">
        <lane id=":J1_40_0" index="0" speed="13.89" length="84.59" shape="1043.05,1946.89 1076.67,1966.43 1098.88,1975.88 1109.69,1975.24 1109.08,1964.52"/>
    </edge>
    <edge id=":J1_41" function="internal">
        <lane id=":J1_41_0" index="0" speed="13.89" length="89.90" shape="1043.05,1946.89 1077.47,1966.52 1101.07,1975.62 1113.85,1974.18 1115.81,1962.21"/>
    </edge>
    <edge id=":J1_42" function="internal">
        <lane id=":J1_42_0" index="0" speed="13.89" length="101.36" shape="1043.05,1946.89 1076.32,1968.02 1101.30,1984.63 1118.00,1996.73 1126.40,2004.32"/>
    </edge>
    <edge id=":J1_43" function="internal">
        <lane id=":J1_43_0" index="0" speed="13.89" length="101.35" shape="1043.05,1946.89 1077.17,1968.59 1102.36,1985.48 1118.64,1997.54 1126.00,2004.78"/>
    </edge>
    <edge id=":J1_44" function="internal">
        <lane id=":J1_44_0" index="0" speed="4.52" length="8.22" shape="1043.05,1946.89 1039.03,1954.07"/>
    </edge>
    <edge id=":J1_45" function="internal">
        <lane id=":J1_45_0" index="0" speed="8.56" length="35.40" shape="1040.59,1951.28 1052.23,1957.61 1056.26,1959.46 1052.67,1956.82 1041.48,1949.69"/>
    </edge>
    <edge id=":J1_46" function="internal">