<?xml version="1.0" encoding="UTF-8"?>

<!-- generated on 2022-10-10 14:46:26 by Eclipse SUMO netedit Version 1.14.1
<configuration xmlns:xsi="http://www.w3.org/2001/XMLSchema-instance" xsi:noNamespaceSchemaLocation="http://sumo.dlr.de/xsd/netconvertConfiguration.xsd">

    <input>
        <sumo-net-file value="new_base.net.xml"/>
    </input>

    <output>
        <output-file value="new_base.net.xml"/>
    </output>

    <processing>
        <geometry.min-radius.fix.railways value="false"/>
        <geometry.max-grade.fix value="false"/>
        <offset.disable-normalization value="true"/>
        <lefthand value="false"/>
    </processing>

    <junctions>
        <no-turnarounds value="true"/>
        <junctions.corner-detail value="5"/>
        <junctions.limit-turn-speed value="5.5"/>
        <rectangular-lane-cut value="false"/>
    </junctions>

    <pedestrian>
        <walkingareas value="false"/>
    </pedestrian>

</configuration>
-->

<net version="1.9" junctionCornerDetail="5" limitTurnSpeed="5.50" xmlns:xsi="http://www.w3.org/2001/XMLSchema-instance" xsi:noNamespaceSchemaLocation="http://sumo.dlr.de/xsd/net_file.xsd">

    <location netOffset="0.00,0.00" convBoundary="-500.00,-625.00,1625.00,1750.00" origBoundary="-10000000000.00,-10000000000.00,10000000000.00,10000000000.00" projParameter="!"/>

    <edge id=":J0_0" function="internal">
        <lane id=":J0_0_0" index="0" speed="10.38" length="28.29" shape="265.50,1736.77 259.57,1740.44 252.11,1742.07 244.89,1741.21 239.70,1737.44"/>
    </edge>
    <edge id=":J0_1" function="internal">
        <lane id=":J0_1_0" index="0" speed="10.92" length="31.44" shape="265.50,1736.77 258.31,1742.82 251.78,1745.38 245.66,1743.79 239.70,1737.44"/>
    </edge>
    <edge id=":J0_2" function="internal">
        <lane id=":J0_2_0" index="0" speed="9.02" length="24.80" shape="265.50,1736.77 260.16,1739.71 253.35,1740.57 247.08,1739.13 243.38,1735.18"/>
    </edge>
    <edge id=":J0_3" function="internal">
        <lane id=":J0_3_0" index="0" speed="9.57" length="28.08" shape="265.50,1736.77 258.91,1741.84 252.63,1743.63 247.25,1741.59 243.38,1735.18"/>
    </edge>
    <edge id=":J0_4" function="internal">
        <lane id=":J0_4_0" index="0" speed="7.49" length="3.39" shape="265.50,1736.77 262.46,1738.28"/>
    </edge>
    <edge id=":J0_5" function="internal">
        <lane id=":J0_5_0" index="0" speed="8.00" length="7.20" shape="265.50,1736.77 259.97,1740.63 259.53,1740.73"/>
    </edge>
    <edge id=":J0_6" function="internal">
        <lane id=":J0_6_0" index="0" speed="6.05" length="2.74" shape="265.50,1736.77 262.98,1737.85"/>
    </edge>
    <edge id=":J0_7" function="internal">
        <lane id=":J0_7_0" index="0" speed="6.50" length="4.94" shape="265.50,1736.77 261.29,1739.35"/>
    </edge>
    <edge id=":J0_8" function="internal">
        <lane id=":J0_8_0" index="0" speed="5.04" length="2.94" shape="265.50,1736.77 262.87,1738.08"/>
    </edge>
    <edge id=":J0_9" function="internal">
        <lane id=":J0_9_0" index="0" speed="5.04" length="2.94" shape="265.50,1736.77 262.87,1738.08"/>
    </edge>
    <edge id=":J0_10" function="internal">
        <lane id=":J0_10_0" index="0" speed="3.24" length="1.68" shape="265.50,1736.77 264.33,1735.56"/>
    </edge>
    <edge id=":J0_66" function="internal">
        <lane id=":J0_66_0" index="0" speed="7.49" length="16.27" shape="262.46,1738.28 261.11,1738.95 255.43,1739.37 250.50,1737.95 248.40,1734.62"/>
    </edge>
    <edge id=":J0_67" function="internal">
        <lane id=":J0_67_0" index="0" speed="8.00" length="15.51" shape="259.53,1740.73 254.41,1741.82 250.12,1739.94 248.40,1734.62"/>
    </edge>
    <edge id=":J0_68" function="internal">
        <lane id=":J0_68_0" index="0" speed="6.05" length="11.43" shape="262.98,1737.85 262.22,1738.18 257.92,1738.18 254.40,1736.93 253.47,1734.54"/>
    </edge>
    <edge id=":J0_69" function="internal">
        <lane id=":J0_69_0" index="0" speed="6.50" length="11.69" shape="261.29,1739.35 256.87,1739.87 253.76,1738.28 253.47,1734.54"/>
    </edge>
    <edge id=":J0_70" function="internal">
        <lane id=":J0_70_0" index="0" speed="5.04" length="7.32" shape="262.87,1738.08 260.08,1737.90 258.26,1736.53 258.54,1734.30"/>
    </edge>
    <edge id=":J0_71" function="internal">
        <lane id=":J0_71_0" index="0" speed="5.04" length="7.32" shape="262.87,1738.08 260.08,1737.90 258.26,1736.53 258.54,1734.30"/>
    </edge>
    <edge id=":J0_72" function="internal">
        <lane id=":J0_72_0" index="0" speed="3.24" length="1.52" shape="264.33,1735.56 263.27,1734.46"/>
    </edge>
    <edge id=":J0_11" function="internal">
        <lane id=":J0_11_0" index="0" speed="3.67" length="4.42" shape="262.76,1733.74 261.87,1735.18 261.66,1735.77 262.12,1735.54 263.27,1734.46"/>
    </edge>
    <edge id=":J0_12" function="internal">
        <lane id=":J0_12_0" index="0" speed="3.67" length="4.42" shape="262.76,1733.74 261.87,1735.18 261.66,1735.77 262.12,1735.54 263.27,1734.46"/>
    </edge>
    <edge id=":J0_13" function="internal">
        <lane id=":J0_13_0" index="0" speed="9.40" length="25.98" shape="262.76,1733.74 257.94,1737.96 251.23,1740.45 244.52,1740.51 239.70,1737.44"/>
    </edge>
    <edge id=":J0_14" function="internal">
        <lane id=":J0_14_0" index="0" speed="9.40" length="25.98" shape="262.76,1733.74 257.94,1737.96 251.23,1740.45 244.52,1740.51 239.70,1737.44"/>
    </edge>
    <edge id=":J0_15" function="internal">
        <lane id=":J0_15_0" index="0" speed="8.12" length="22.03" shape="262.76,1733.74 258.50,1737.11 252.49,1738.79 246.76,1738.31 243.38,1735.18"/>
    </edge>
    <edge id=":J0_16" function="internal">
        <lane id=":J0_16_0" index="0" speed="8.12" length="22.03" shape="262.76,1733.74 258.50,1737.11 252.49,1738.79 246.76,1738.31 243.38,1735.18"/>
    </edge>
    <edge id=":J0_17" function="internal">
        <lane id=":J0_17_0" index="0" speed="6.65" length="16.57" shape="262.76,1733.74 259.39,1736.24 254.58,1737.47 250.27,1737.06 248.40,1734.62"/>
    </edge>
    <edge id=":J0_18" function="internal">
        <lane id=":J0_18_0" index="0" speed="6.65" length="16.57" shape="262.76,1733.74 259.39,1736.24 254.58,1737.47 250.27,1737.06 248.40,1734.62"/>
    </edge>
    <edge id=":J0_19" function="internal">
        <lane id=":J0_19_0" index="0" speed="5.60" length="12.80" shape="262.76,1733.74 259.86,1736.38 256.42,1737.60 253.82,1737.10 253.47,1734.54"/>
    </edge>
    <edge id=":J0_20" function="internal">
        <lane id=":J0_20_0" index="0" speed="5.21" length="10.81" shape="262.76,1733.74 260.44,1735.38 257.10,1736.22 254.26,1736.02 253.47,1734.54"/>
    </edge>
    <edge id=":J0_21" function="internal">
        <lane id=":J0_21_0" index="0" speed="3.54" length="4.25" shape="262.76,1733.74 258.54,1734.30"/>
    </edge>
    <edge id=":J0_22" function="internal">
        <lane id=":J0_22_0" index="0" speed="4.27" length="6.55" shape="257.44,1732.75 256.70,1735.25 256.64,1736.35 257.26,1736.03 258.54,1734.30"/>
    </edge>
    <edge id=":J0_23" function="internal">
        <lane id=":J0_23_0" index="0" speed="4.27" length="6.55" shape="257.44,1732.75 256.70,1735.25 256.64,1736.35 257.26,1736.03 258.54,1734.30"/>
    </edge>
    <edge id=":J0_24" function="internal">
        <lane id=":J0_24_0" index="0" speed="6.04" length="14.08" shape="257.44,1732.75 256.39,1737.10 257.01,1738.84 259.30,1737.96 263.27,1734.46"/>
    </edge>
    <edge id=":J0_25" function="internal">
        <lane id=":J0_25_0" index="0" speed="6.04" length="14.08" shape="257.44,1732.75 256.39,1737.10 257.01,1738.84 259.30,1737.96 263.27,1734.46"/>
    </edge>
    <edge id=":J0_26" function="internal">
        <lane id=":J0_26_0" index="0" speed="7.90" length="20.80" shape="257.44,1732.75 254.33,1736.64 249.12,1739.18 243.63,1739.67 239.70,1737.44"/>
    </edge>
    <edge id=":J0_27" function="internal">
        <lane id=":J0_27_0" index="0" speed="7.90" length="20.80" shape="257.44,1732.75 254.33,1736.64 249.12,1739.18 243.63,1739.67 239.70,1737.44"/>
    </edge>
    <edge id=":J0_28" function="internal">
        <lane id=":J0_28_0" index="0" speed="6.70" length="16.45" shape="257.44,1732.75 254.82,1735.67 250.41,1737.35 246.00,1737.34 243.38,1735.18"/>
    </edge>
    <edge id=":J0_29" function="internal">
        <lane id=":J0_29_0" index="0" speed="6.70" length="16.45" shape="257.44,1732.75 254.82,1735.67 250.41,1737.35 246.00,1737.34 243.38,1735.18"/>
    </edge>
    <edge id=":J0_30" function="internal">
        <lane id=":J0_30_0" index="0" speed="5.63" length="12.70" shape="257.44,1732.75 255.34,1735.81 252.31,1737.43 249.58,1737.17 248.40,1734.62"/>
    </edge>
    <edge id=":J0_31" function="internal">
        <lane id=":J0_31_0" index="0" speed="5.25" length="10.76" shape="257.44,1732.75 255.61,1734.70 252.55,1735.93 249.68,1736.03 248.40,1734.62"/>
    </edge>
    <edge id=":J0_32" function="internal">
        <lane id=":J0_32_0" index="0" speed="3.57" length="4.36" shape="257.44,1732.75 253.47,1734.54"/>
    </edge>
    <edge id=":J0_33" function="internal">
        <lane id=":J0_33_0" index="0" speed="4.17" length="6.04" shape="251.60,1734.57 251.72,1736.66 252.07,1737.35 252.65,1736.64 253.47,1734.54"/>
    </edge>
    <edge id=":J0_34" function="internal">
        <lane id=":J0_34_0" index="0" speed="4.17" length="6.04" shape="251.60,1734.57 251.72,1736.66 252.07,1737.35 252.65,1736.64 253.47,1734.54"/>
    </edge>
    <edge id=":J0_35" function="internal">
        <lane id=":J0_35_0" index="0" speed="5.99" length="13.12" shape="251.60,1734.57 252.03,1738.36 253.34,1739.57 255.51,1738.22 258.54,1734.30"/>
    </edge>
    <edge id=":J0_36" function="internal">
        <lane id=":J0_36_0" index="0" speed="5.99" length="13.12" shape="251.60,1734.57 252.03,1738.36 253.34,1739.57 255.51,1738.22 258.54,1734.30"/>
    </edge>
    <edge id=":J0_37" function="internal">
        <lane id=":J0_37_0" index="0" speed="7.13" length="17.67" shape="251.60,1734.57 252.33,1738.90 254.52,1740.33 258.17,1738.85 263.27,1734.46"/>
    </edge>
    <edge id=":J0_38" function="internal">
        <lane id=":J0_38_0" index="0" speed="7.13" length="17.67" shape="251.60,1734.57 252.33,1738.90 254.52,1740.33 258.17,1738.85 263.27,1734.46"/>
    </edge>
    <edge id=":J0_39" function="internal">
        <lane id=":J0_39_0" index="0" speed="6.20" length="14.16" shape="251.60,1734.57 250.06,1737.21 246.50,1738.81 242.52,1739.00 239.70,1737.44"/>
    </edge>
    <edge id=":J0_40" function="internal">
        <lane id=":J0_40_0" index="0" speed="6.20" length="14.16" shape="251.60,1734.57 250.06,1737.21 246.50,1738.81 242.52,1739.00 239.70,1737.44"/>
    </edge>
    <edge id=":J0_41" function="internal">
        <lane id=":J0_41_0" index="0" speed="5.38" length="11.42" shape="251.60,1734.57 250.52,1737.21 248.03,1738.22 245.27,1737.57 243.38,1735.18"/>
    </edge>
    <edge id=":J0_42" function="internal">
        <lane id=":J0_42_0" index="0" speed="5.02" length="9.67" shape="251.60,1734.57 250.44,1736.19 247.81,1736.89 245.03,1736.58 243.38,1735.18"/>
    </edge>
    <edge id=":J0_43" function="internal">
        <lane id=":J0_43_0" index="0" speed="3.24" length="3.20" shape="251.60,1734.57 248.40,1734.62"/>
    </edge>
    <edge id=":J0_44" function="internal">
        <lane id=":J0_44_0" index="0" speed="4.15" length="5.95" shape="246.57,1734.64 247.37,1736.70 247.94,1737.38 248.29,1736.69 248.40,1734.62"/>
    </edge>
    <edge id=":J0_45" function="internal">
        <lane id=":J0_45_0" index="0" speed="4.15" length="5.95" shape="246.57,1734.64 247.37,1736.70 247.94,1737.38 248.29,1736.69 248.40,1734.62"/>
    </edge>
    <edge id=":J0_46" function="internal">
        <lane id=":J0_46_0" index="0" speed="5.99" length="12.81" shape="246.57,1734.64 248.29,1738.50 250.01,1739.77 251.74,1738.45 253.47,1734.54"/>
    </edge>
    <edge id=":J0_47" function="internal">
        <lane id=":J0_47_0" index="0" speed="5.99" length="12.81" shape="246.57,1734.64 248.29,1738.50 250.01,1739.77 251.74,1738.45 253.47,1734.54"/>
    </edge>
    <edge id=":J0_48" function="internal">
        <lane id=":J0_48_0" index="0" speed="7.30" length="17.52" shape="246.57,1734.64 248.78,1739.03 251.52,1740.43 254.77,1738.85 258.54,1734.30"/>
    </edge>
    <edge id=":J0_49" function="internal">
        <lane id=":J0_49_0" index="0" speed="7.30" length="17.52" shape="246.57,1734.64 248.78,1739.03 251.52,1740.43 254.77,1738.85 258.54,1734.30"/>
    </edge>
    <edge id=":J0_50" function="internal">
        <lane id=":J0_50_0" index="0" speed="8.47" length="21.69" shape="246.57,1734.64 249.16,1739.28 252.81,1740.80 257.51,1739.19 263.27,1734.46"/>
    </edge>
    <edge id=":J0_51" function="internal">
        <lane id=":J0_51_0" index="0" speed="8.47" length="21.69" shape="246.57,1734.64 249.16,1739.28 252.81,1740.80 257.51,1739.19 263.27,1734.46"/>
    </edge>
    <edge id=":J0_52" function="internal">
        <lane id=":J0_52_0" index="0" speed="5.11" length="10.31" shape="246.57,1734.64 246.37,1737.21 244.48,1738.79 241.92,1739.00 239.70,1737.44"/>
    </edge>
    <edge id=":J0_53" function="internal">
        <lane id=":J0_53_0" index="0" speed="4.77" length="8.71" shape="246.57,1734.64 246.02,1736.36 243.94,1737.69 241.46,1738.20 239.70,1737.44"/>
    </edge>
    <edge id=":J0_54" function="internal">
        <lane id=":J0_54_0" index="0" speed="3.25" length="3.24" shape="246.57,1734.64 243.38,1735.18"/>
    </edge>
    <edge id=":J0_55" function="internal">
        <lane id=":J0_55_0" index="0" speed="3.75" length="4.59" shape="242.12,1735.30 243.17,1736.74 243.73,1737.21 243.80,1736.69 243.38,1735.18"/>
    </edge>
    <edge id=":J0_56" function="internal">
        <lane id=":J0_56_0" index="0" speed="3.75" length="4.59" shape="242.12,1735.30 243.17,1736.74 243.73,1737.21 243.80,1736.69 243.38,1735.18"/>
    </edge>
    <edge id=":J0_57" function="internal">
        <lane id=":J0_57_0" index="0" speed="5.83" length="12.34" shape="242.12,1735.30 244.87,1738.79 246.83,1739.84 248.01,1738.45 248.40,1734.62"/>
    </edge>
    <edge id=":J0_58" function="internal">
        <lane id=":J0_58_0" index="0" speed="5.83" length="12.34" shape="242.12,1735.30 244.87,1738.79 246.83,1739.84 248.01,1738.45 248.40,1734.62"/>
    </edge>
    <edge id=":J0_59" function="internal">
        <lane id=":J0_59_0" index="0" speed="7.16" length="16.76" shape="242.12,1735.30 245.60,1739.41 248.66,1740.65 251.28,1739.03 253.47,1734.54"/>
    </edge>
    <edge id=":J0_60" function="internal">
        <lane id=":J0_60_0" index="0" speed="7.16" length="16.76" shape="242.12,1735.30 245.60,1739.41 248.66,1740.65 251.28,1739.03 253.47,1734.54"/>
    </edge>
    <edge id=":J0_61" function="internal">
        <lane id=":J0_61_0" index="0" speed="8.52" length="21.14" shape="242.12,1735.30 246.10,1739.67 250.17,1740.96 254.31,1739.17 258.54,1734.30"/>
    </edge>
    <edge id=":J0_62" function="internal">
        <lane id=":J0_62_0" index="0" speed="8.52" length="21.14" shape="242.12,1735.30 246.10,1739.67 250.17,1740.96 254.31,1739.17 258.54,1734.30"/>
    </edge>
    <edge id=":J0_63" function="internal">
        <lane id=":J0_63_0" index="0" speed="9.83" length="25.26" shape="242.12,1735.30 246.49,1739.82 251.47,1741.18 257.07,1739.40 263.27,1734.46"/>
    </edge>
    <edge id=":J0_64" function="internal">
        <lane id=":J0_64_0" index="0" speed="9.83" length="25.26" shape="242.12,1735.30 246.49,1739.82 251.47,1741.18 257.07,1739.40 263.27,1734.46"/>
    </edge>
    <edge id=":J0_65" function="internal">
        <lane id=":J0_65_0" index="0" speed="3.25" length="0.64" shape="242.12,1735.30 241.64,1735.72"/>
    </edge>
    <edge id=":J0_73" function="internal">
        <lane id=":J0_73_0" index="0" speed="3.25" length="2.59" shape="241.64,1735.72 239.70,1737.44"/>
    </edge>
    <edge id=":J1_0" function="internal">
        <lane id=":J1_0_0" index="0" speed="13.89" length="53.22" shape="891.80,1727.68 881.72,1738.26 871.38,1740.57 860.35,1735.88 848.19,1725.45"/>
    </edge>
    <edge id=":J1_1" function="internal">
        <lane id=":J1_1_0" index="0" speed="12.73" length="16.46" shape="891.80,1727.68 882.45,1736.70 879.01,1737.04"/>
    </edge>
    <edge id=":J1_2" function="internal">
        <lane id=":J1_2_0" index="0" speed="10.19" length="10.22" shape="891.80,1727.68 884.68,1734.48 884.32,1734.55"/>
    </edge>
    <edge id=":J1_3" function="internal">
        <lane id=":J1_3_0" index="0" speed="8.01" length="7.47" shape="891.80,1727.68 886.53,1732.50 886.22,1732.58"/>
    </edge>
    <edge id=":J1_4" function="internal">
        <lane id=":J1_4_0" index="0" speed="5.95" length="3.39" shape="891.80,1727.68 889.00,1729.58"/>
    </edge>
    <edge id=":J1_30" function="internal">
        <lane id=":J1_30_0" index="0" speed="12.73" length="32.35" shape="879.01,1737.04 872.66,1737.67 862.88,1731.88 853.52,1720.67"/>
    </edge>
    <edge id=":J1_31" function="internal">
        <lane id=":J1_31_0" index="0" speed="10.19" length="25.40" shape="884.32,1734.55 876.87,1736.02 869.75,1732.48 864.66,1724.04"/>
    </edge>
    <edge id=":J1_32" function="internal">
        <lane id=":J1_32_0" index="0" speed="8.01" length="17.41" shape="886.22,1732.58 880.47,1734.02 875.48,1732.02 873.40,1726.28"/>
    </edge>
    <edge id=":J1_33" function="internal">
        <lane id=":J1_33_0" index="0" speed="5.95" length="11.33" shape="889.00,1729.58 888.68,1729.80 885.13,1729.28 882.55,1726.80 882.30,1723.03"/>
    </edge>
    <edge id=":J1_5" function="internal">
        <lane id=":J1_5_0" index="0" speed="6.26" length="16.53" shape="885.34,1724.04 883.69,1729.83 883.77,1732.07 885.59,1730.76 889.14,1725.90"/>
    </edge>
    <edge id=":J1_6" function="internal">
        <lane id=":J1_6_0" index="0" speed="12.26" length="47.07" shape="885.34,1724.04 878.83,1734.58 869.79,1737.57 859.24,1734.15 848.19,1725.45"/>
    </edge>
    <edge id=":J1_7" function="internal">
        <lane id=":J1_7_0" index="0" speed="10.97" length="41.55" shape="885.34,1724.04 879.38,1732.71 871.02,1734.23 861.86,1729.81 853.52,1720.67"/>
    </edge>
    <edge id=":J1_8" function="internal">
        <lane id=":J1_8_0" index="0" speed="8.53" length="27.76" shape="885.34,1724.04 881.09,1730.17 875.00,1732.22 868.91,1730.17 864.66,1724.04"/>
    </edge>
    <edge id=":J1_9" function="internal">
        <lane id=":J1_9_0" index="0" speed="6.35" length="16.73" shape="885.34,1724.04 882.57,1728.04 878.57,1730.09 874.97,1729.68 873.40,1726.28"/>
    </edge>
    <edge id=":J1_10" function="internal">
        <lane id=":J1_10_0" index="0" speed="6.38" length="16.91" shape="876.60,1726.28 876.96,1731.27 878.03,1732.40 879.81,1729.65 882.30,1723.03"/>
    </edge>
    <edge id=":J1_11" function="internal">
        <lane id=":J1_11_0" index="0" speed="7.83" length="23.74" shape="876.60,1726.28 877.38,1733.17 879.74,1735.40 883.65,1732.98 889.14,1725.90"/>
    </edge>
    <edge id=":J1_12" function="internal">
        <lane id=":J1_12_0" index="0" speed="10.12" length="37.35" shape="876.60,1726.28 873.73,1734.38 866.58,1735.97 857.34,1732.51 848.19,1725.45"/>
    </edge>
    <edge id=":J1_13" function="internal">
        <lane id=":J1_13_0" index="0" speed="8.98" length="31.74" shape="876.60,1726.28 874.02,1732.51 867.81,1732.54 860.22,1728.03 853.52,1720.67"/>
    </edge>
    <edge id=":J1_14" function="internal">
        <lane id=":J1_14_0" index="0" speed="6.35" length="16.73" shape="876.60,1726.28 875.03,1729.68 871.43,1730.09 867.43,1728.04 864.66,1724.04"/>
    </edge>
    <edge id=":J1_15" function="internal">
        <lane id=":J1_15_0" index="0" speed="6.38" length="16.91" shape="867.70,1723.03 870.19,1729.65 871.97,1732.40 873.04,1731.27 873.40,1726.28"/>
    </edge>
    <edge id=":J1_16" function="internal">
        <lane id=":J1_16_0" index="0" speed="8.43" length="27.11" shape="867.70,1723.03 871.35,1731.25 875.00,1733.99 878.65,1731.25 882.30,1723.03"/>
    </edge>
    <edge id=":J1_17" function="internal">
        <lane id=":J1_17_0" index="0" speed="9.68" length="31.96" shape="867.70,1723.03 871.96,1731.97 876.95,1735.43 882.68,1733.41 889.14,1725.90"/>
    </edge>
    <edge id=":J1_18" function="internal">
        <lane id=":J1_18_0" index="0" speed="8.07" length="26.67" shape="867.70,1723.03 867.19,1728.87 862.13,1731.02 854.98,1729.79 848.19,1725.45"/>
    </edge>
    <edge id=":J1_19" function="internal">
        <lane id=":J1_19_0" index="0" speed="6.76" length="19.63" shape="867.70,1723.03 867.17,1726.79 863.22,1727.18 857.96,1724.91 853.52,1720.67"/>
    </edge>
    <edge id=":J1_20" function="internal">
        <lane id=":J1_20_0" index="0" speed="7.02" length="21.35" shape="856.19,1718.90 861.79,1726.82 865.06,1730.32 866.02,1729.39 864.66,1724.04"/>
    </edge>
    <edge id=":J1_21" function="internal">
        <lane id=":J1_21_0" index="0" speed="8.69" length="29.62" shape="856.19,1718.90 863.72,1729.04 869.10,1733.65 872.32,1732.73 873.40,1726.28"/>
    </edge>
    <edge id=":J1_22" function="internal">
        <lane id=":J1_22_0" index="0" speed="10.48" length="37.79" shape="856.19,1718.90 864.69,1729.46 871.88,1733.68 877.75,1731.53 882.30,1723.03"/>
    </edge>
    <edge id=":J1_23" function="internal">
        <lane id=":J1_23_0" index="0" speed="11.93" length="42.69" shape="856.19,1718.90 865.30,1729.92 873.83,1734.76 881.78,1733.42 889.14,1725.90"/>
    </edge>
    <edge id=":J1_24" function="internal">
        <lane id=":J1_24_0" index="0" speed="5.84" length="14.47" shape="856.19,1718.90 856.85,1722.51 854.91,1725.49 851.60,1726.81 848.19,1725.45"/>
    </edge>
    <edge id=":J1_25" function="internal">
        <lane id=":J1_25_0" index="0" speed="6.82" length="20.57" shape="850.45,1723.19 855.99,1728.38 858.35,1729.69 857.52,1727.12 853.52,1720.67"/>
    </edge>
    <edge id=":J1_26" function="internal">
        <lane id=":J1_26_0" index="0" speed="8.30" length="28.32" shape="850.45,1723.19 859.17,1731.07 864.45,1733.85 866.28,1731.50 864.66,1724.04"/>
    </edge>
    <edge id=":J1_27" function="internal">
        <lane id=":J1_27_0" index="0" speed="9.60" length="33.41" shape="850.45,1723.19 860.49,1731.99 867.66,1735.44 871.97,1733.53 873.40,1726.28"/>
    </edge>
    <edge id=":J1_28" function="internal">
        <lane id=":J1_28_0" index="0" speed="11.53" length="41.45" shape="850.45,1723.19 861.39,1732.12 870.34,1735.07 877.31,1732.04 882.30,1723.03"/>
    </edge>
    <edge id=":J1_29" function="internal">
        <lane id=":J1_29_0" index="0" speed="13.15" length="46.13" shape="850.45,1723.19 861.98,1732.47 872.27,1736.02 881.33,1733.83 889.14,1725.90"/>
    </edge>
    <edge id=":J10_0" function="internal">
        <lane id=":J10_0_0" index="0" speed="6.51" length="9.03" shape="-1.60,507.20 -1.95,504.75 -3.00,503.00 -4.75,501.95 -7.20,501.60"/>
    </edge>
    <edge id=":J10_1" function="internal">
        <lane id=":J10_1_0" index="0" speed="13.89" length="14.40" shape="-1.60,507.20 -1.60,492.80"/>
    </edge>
    <edge id=":J10_2" function="internal">
        <lane id=":J10_2_0" index="0" speed="8.00" length="14.19" shape="-1.60,507.20 -1.05,503.35 0.60,500.60 3.35,498.95 7.20,498.40"/>
    </edge>
    <edge id=":J10_3" function="internal">
        <lane id=":J10_3_0" index="0" speed="6.51" length="9.03" shape="7.20,501.60 4.75,501.95 3.00,503.00 1.95,504.75 1.60,507.20"/>
    </edge>
    <edge id=":J10_4" function="internal">
        <lane id=":J10_4_0" index="0" speed="13.89" length="14.40" shape="7.20,501.60 -7.20,501.60"/>
    </edge>
    <edge id=":J10_5" function="internal">
        <lane id=":J10_5_0" index="0" speed="8.00" length="14.19" shape="7.20,501.60 3.35,501.05 0.60,499.40 -1.05,496.65 -1.60,492.80"/>
    </edge>
    <edge id=":J10_6" function="internal">
        <lane id=":J10_6_0" index="0" speed="6.51" length="9.03" shape="1.60,492.80 1.95,495.25 3.00,497.00 4.75,498.05 7.20,498.40"/>
    </edge>
    <edge id=":J10_7" function="internal">
        <lane id=":J10_7_0" index="0" speed="13.89" length="14.40" shape="1.60,492.80 1.60,507.20"/>
    </edge>
    <edge id=":J10_8" function="internal">
        <lane id=":J10_8_0" index="0" speed="8.00" length="14.19" shape="1.60,492.80 1.05,496.65 -0.60,499.40 -3.35,501.05 -7.20,501.60"/>
    </edge>
    <edge id=":J10_9" function="internal">
        <lane id=":J10_9_0" index="0" speed="6.51" length="9.03" shape="-7.20,498.40 -4.75,498.05 -3.00,497.00 -1.95,495.25 -1.60,492.80"/>
    </edge>
    <edge id=":J10_10" function="internal">
        <lane id=":J10_10_0" index="0" speed="13.89" length="14.40" shape="-7.20,498.40 7.20,498.40"/>
    </edge>
    <edge id=":J10_11" function="internal">
        <lane id=":J10_11_0" index="0" speed="8.00" length="14.19" shape="-7.20,498.40 -3.35,498.95 -0.60,500.60 1.05,503.35 1.60,507.20"/>
    </edge>
    <edge id=":J100_0" function="internal">
        <lane id=":J100_0_0" index="0" speed="6.51" length="9.03" shape="873.40,757.20 873.05,754.75 872.00,753.00 870.25,751.95 867.80,751.60"/>
    </edge>
    <edge id=":J100_1" function="internal">
        <lane id=":J100_1_0" index="0" speed="13.89" length="14.40" shape="873.40,757.20 873.40,742.80"/>
    </edge>
    <edge id=":J100_2" function="internal">
        <lane id=":J100_2_0" index="0" speed="8.00" length="4.07" shape="873.40,757.20 873.95,753.35 874.04,753.20"/>
    </edge>
    <edge id=":J100_12" function="internal">
        <lane id=":J100_12_0" index="0" speed="8.00" length="10.13" shape="874.04,753.20 875.60,750.60 878.35,748.95 882.20,748.40"/>
    </edge>
    <edge id=":J100_3" function="internal">
        <lane id=":J100_3_0" index="0" speed="6.51" length="9.03" shape="882.20,751.60 879.75,751.95 878.00,753.00 876.95,754.75 876.60,757.20"/>
    </edge>
    <edge id=":J100_4" function="internal">
        <lane id=":J100_4_0" index="0" speed="13.89" length="14.40" shape="882.20,751.60 867.80,751.60"/>
    </edge>
    <edge id=":J100_5" function="internal">
        <lane id=":J100_5_0" index="0" speed="8.00" length="4.07" shape="882.20,751.60 878.35,751.05 878.20,750.96"/>
    </edge>
    <edge id=":J100_13" function="internal">
        <lane id=":J100_13_0" index="0" speed="8.00" length="10.13" shape="878.20,750.96 875.60,749.40 873.95,746.65 873.40,742.80"/>
    </edge>
    <edge id=":J100_6" function="internal">
        <lane id=":J100_6_0" index="0" speed="6.51" length="9.03" shape="876.60,742.80 876.95,745.25 878.00,747.00 879.75,748.05 882.20,748.40"/>
    </edge>
    <edge id=":J100_7" function="internal">
        <lane id=":J100_7_0" index="0" speed="13.89" length="14.40" shape="876.60,742.80 876.60,757.20"/>
    </edge>
    <edge id=":J100_8" function="internal">
        <lane id=":J100_8_0" index="0" speed="8.00" length="4.07" shape="876.60,742.80 876.05,746.65 875.96,746.80"/>
    </edge>
    <edge id=":J100_14" function="internal">
        <lane id=":J100_14_0" index="0" speed="8.00" length="10.13" shape="875.96,746.80 874.40,749.40 871.65,751.05 867.80,751.60"/>
    </edge>
    <edge id=":J100_9" function="internal">
        <lane id=":J100_9_0" index="0" speed="6.51" length="9.03" shape="867.80,748.40 870.25,748.05 872.00,747.00 873.05,745.25 873.40,742.80"/>
    </edge>
    <edge id=":J100_10" function="internal">
        <lane id=":J100_10_0" index="0" speed="13.89" length="14.40" shape="867.80,748.40 882.20,748.40"/>
    </edge>
    <edge id=":J100_11" function="internal">
        <lane id=":J100_11_0" index="0" speed="8.00" length="4.07" shape="867.80,748.40 871.65,748.95 871.80,749.04"/>
    </edge>
    <edge id=":J100_15" function="internal">
        <lane id=":J100_15_0" index="0" speed="8.00" length="10.13" shape="871.80,749.04 874.40,750.60 876.05,753.35 876.60,757.20"/>
    </edge>
    <edge id=":J101_0" function="internal">
        <lane id=":J101_0_0" index="0" speed="6.51" length="9.03" shape="873.40,882.20 873.05,879.75 872.00,878.00 870.25,876.95 867.80,876.60"/>
    </edge>
    <edge id=":J101_1" function="internal">
        <lane id=":J101_1_0" index="0" speed="13.89" length="14.40" shape="873.40,882.20 873.40,867.80"/>
    </edge>
    <edge id=":J101_2" function="internal">
        <lane id=":J101_2_0" index="0" speed="8.00" length="4.07" shape="873.40,882.20 873.95,878.35 874.04,878.20"/>
    </edge>
    <edge id=":J101_12" function="internal">
        <lane id=":J101_12_0" index="0" speed="8.00" length="10.13" shape="874.04,878.20 875.60,875.60 878.35,873.95 882.20,873.40"/>
    </edge>
    <edge id=":J101_3" function="internal">
        <lane id=":J101_3_0" index="0" speed="6.51" length="9.03" shape="882.20,876.60 879.75,876.95 878.00,878.00 876.95,879.75 876.60,882.20"/>
    </edge>
    <edge id=":J101_4" function="internal">
        <lane id=":J101_4_0" index="0" speed="13.89" length="14.40" shape="882.20,876.60 867.80,876.60"/>
    </edge>
    <edge id=":J101_5" function="internal">
        <lane id=":J101_5_0" index="0" speed="8.00" length="4.07" shape="882.20,876.60 878.35,876.05 878.20,875.96"/>
    </edge>
    <edge id=":J101_13" function="internal">
        <lane id=":J101_13_0" index="0" speed="8.00" length="10.13" shape="878.20,875.96 875.60,874.40 873.95,871.65 873.40,867.80"/>
    </edge>
    <edge id=":J101_6" function="internal">
        <lane id=":J101_6_0" index="0" speed="6.51" length="9.03" shape="876.60,867.80 876.95,870.25 878.00,872.00 879.75,873.05 882.20,873.40"/>
    </edge>
    <edge id=":J101_7" function="internal">
        <lane id=":J101_7_0" index="0" speed="13.89" length="14.40" shape="876.60,867.80 876.60,882.20"/>
    </edge>
    <edge id=":J101_8" function="internal">
        <lane id=":J101_8_0" index="0" speed="8.00" length="4.07" shape="876.60,867.80 876.05,871.65 875.96,871.80"/>
    </edge>
    <edge id=":J101_14" function="internal">
        <lane id=":J101_14_0" index="0" speed="8.00" length="10.13" shape="875.96,871.80 874.40,874.40 871.65,876.05 867.80,876.60"/>
    </edge>
    <edge id=":J101_9" function="internal">