<?xml version="1.0" encoding="UTF-8"?>

<!-- generated on 2022-11-06 15:22:53 by Eclipse SUMO netconvert Version 1.14.1
<configuration xmlns:xsi="http://www.w3.org/2001/XMLSchema-instance" xsi:noNamespaceSchemaLocation="http://sumo.dlr.de/xsd/netconvertConfiguration.xsd">

    <input>
        <sumo-net-file value="sync.net.xml"/>
    </input>

    <processing>
        <geometry.min-radius.fix.railways value="false"/>
        <geometry.max-grade.fix value="false"/>
        <offset.disable-normalization value="true"/>
        <lefthand value="false"/>
    </processing>

    <junctions>
        <no-turnarounds value="true"/>
        <junctions.corner-detail value="5"/>
        <junctions.limit-turn-speed value="5.5"/>
        <rectangular-lane-cut value="false"/>
    </junctions>

    <pedestrian>
        <crossings.guess value="true"/>
        <walkingareas value="false"/>
    </pedestrian>

</configuration>
-->

<net version="1.9" junctionCornerDetail="5" walkingareas="true" limitTurnSpeed="5.50" xmlns:xsi="http://www.w3.org/2001/XMLSchema-instance" xsi:noNamespaceSchemaLocation="http://sumo.dlr.de/xsd/net_file.xsd">

    <location netOffset="0.00,0.00" convBoundary="-500.00,-625.00,1625.00,1750.00" origBoundary="-10000000000.00,-10000000000.00,10000000000.00,10000000000.00" projParameter="!"/>

    <edge id=":J0_0" function="internal">
        <lane id=":J0_0_0" index="0" disallow="pedestrian" speed="11.74" length="36.57" shape="270.97,1731.29 263.64,1735.21 253.28,1737.16 243.16,1736.55 236.60,1732.78"/>
    </edge>
    <edge id=":J0_1" function="internal">
        <lane id=":J0_1_0" index="0" disallow="pedestrian" speed="12.55" length="41.93" shape="270.97,1731.29 261.39,1739.46 252.69,1743.07 244.54,1741.16 236.60,1732.78"/>
    </edge>
    <edge id=":J0_2" function="internal">
        <lane id=":J0_2_0" index="0" disallow="pedestrian" speed="10.24" length="32.39" shape="270.97,1731.29 264.12,1734.89 254.97,1736.05 246.47,1734.45 241.57,1729.77"/>
    </edge>
    <edge id=":J0_3" function="internal">
        <lane id=":J0_3_0" index="0" disallow="pedestrian" speed="10.96" length="37.28" shape="270.97,1731.29 262.23,1738.11 253.87,1740.68 246.72,1738.18 241.57,1729.77"/>
    </edge>
    <edge id=":J0_4" function="internal">
        <lane id=":J0_4_0" index="0" disallow="pedestrian" speed="8.50" length="3.90" shape="270.97,1731.29 267.51,1733.09"/>
    </edge>
    <edge id=":J0_5" function="internal">
        <lane id=":J0_5_0" index="0" disallow="pedestrian" speed="9.10" length="9.44" shape="270.97,1731.29 263.69,1736.50 263.22,1736.62"/>
    </edge>
    <edge id=":J0_6" function="internal">
        <lane id=":J0_6_0" index="0" disallow="pedestrian" speed="6.79" length="3.16" shape="270.97,1731.29 268.10,1732.60"/>
    </edge>
    <edge id=":J0_7" function="internal">
        <lane id=":J0_7_0" index="0" disallow="pedestrian" speed="7.31" length="6.48" shape="270.97,1731.29 265.50,1734.76"/>
    </edge>
    <edge id=":J0_8" function="internal">
        <lane id=":J0_8_0" index="0" disallow="pedestrian" speed="5.49" length="3.65" shape="270.97,1731.29 267.73,1732.96"/>
    </edge>
    <edge id=":J0_9" function="internal">
        <lane id=":J0_9_0" index="0" disallow="pedestrian" speed="5.49" length="3.65" shape="270.97,1731.29 267.73,1732.96"/>
    </edge>
    <edge id=":J0_10" function="internal">
        <lane id=":J0_10_0" index="0" disallow="pedestrian" speed="3.26" length="1.59" shape="270.97,1731.29 270.06,1729.99"/>
    </edge>
    <edge id=":J0_66" function="internal">
        <lane id=":J0_66_0" index="0" disallow="pedestrian" speed="8.50" length="21.94" shape="267.51,1733.09 265.19,1734.29 257.68,1735.12 251.18,1733.52 248.40,1729.27"/>
    </edge>
    <edge id=":J0_67" function="internal">
        <lane id=":J0_67_0" index="0" disallow="pedestrian" speed="9.10" length="20.41" shape="263.22,1736.62 256.35,1738.34 250.68,1736.15 248.40,1729.27"/>
    </edge>
    <edge id=":J0_68" function="internal">
        <lane id=":J0_68_0" index="0" disallow="pedestrian" speed="6.79" length="15.18" shape="268.10,1732.60 266.71,1733.24 261.09,1733.51 256.48,1732.14 255.26,1729.16"/>
    </edge>
    <edge id=":J0_69" function="internal">
        <lane id=":J0_69_0" index="0" disallow="pedestrian" speed="7.31" length="15.04" shape="265.50,1734.76 259.74,1735.70 255.66,1733.90 255.26,1729.16"/>
    </edge>
    <edge id=":J0_70" function="internal">
        <lane id=":J0_70_0" index="0" disallow="pedestrian" speed="5.49" length="8.91" shape="267.73,1732.96 264.27,1732.86 262.00,1731.31 262.32,1728.63"/>
    </edge>
    <edge id=":J0_71" function="internal">
        <lane id=":J0_71_0" index="0" disallow="pedestrian" speed="5.49" length="8.91" shape="267.73,1732.96 264.27,1732.86 262.00,1731.31 262.32,1728.63"/>
    </edge>
    <edge id=":J0_72" function="internal">
        <lane id=":J0_72_0" index="0" disallow="pedestrian" speed="3.26" length="1.66" shape="270.06,1729.99 269.10,1728.63"/>
    </edge>
    <edge id=":J0_11" function="internal">
        <lane id=":J0_11_0" index="0" disallow="pedestrian" speed="5.57" length="13.00" shape="267.51,1726.62 264.90,1730.80 264.30,1732.53 265.70,1731.81 269.10,1728.63"/>
    </edge>
    <edge id=":J0_12" function="internal">
        <lane id=":J0_12_0" index="0" disallow="pedestrian" speed="5.57" length="13.00" shape="267.51,1726.62 264.90,1730.80 264.30,1732.53 265.70,1731.81 269.10,1728.63"/>
    </edge>
    <edge id=":J0_13" function="internal">
        <lane id=":J0_13_0" index="0" disallow="pedestrian" speed="10.71" length="34.20" shape="267.51,1726.62 261.29,1731.74 252.05,1735.25 242.81,1735.98 236.60,1732.78"/>
    </edge>
    <edge id=":J0_14" function="internal">
        <lane id=":J0_14_0" index="0" disallow="pedestrian" speed="10.71" length="34.20" shape="267.51,1726.62 261.29,1731.74 252.05,1735.25 242.81,1735.98 236.60,1732.78"/>
    </edge>
    <edge id=":J0_15" function="internal">
        <lane id=":J0_15_0" index="0" disallow="pedestrian" speed="9.33" length="29.60" shape="267.51,1726.62 261.81,1731.33 253.76,1734.01 246.11,1733.78 241.57,1729.77"/>
    </edge>
    <edge id=":J0_16" function="internal">
        <lane id=":J0_16_0" index="0" disallow="pedestrian" speed="9.33" length="29.60" shape="267.51,1726.62 261.81,1731.33 253.76,1734.01 246.11,1733.78 241.57,1729.77"/>
    </edge>
    <edge id=":J0_17" function="internal">
        <lane id=":J0_17_0" index="0" disallow="pedestrian" speed="7.59" length="22.17" shape="267.51,1726.62 263.02,1730.19 256.62,1732.36 250.88,1732.32 248.40,1729.27"/>
    </edge>
    <edge id=":J0_18" function="internal">
        <lane id=":J0_18_0" index="0" disallow="pedestrian" speed="7.59" length="22.17" shape="267.51,1726.62 263.02,1730.19 256.62,1732.36 250.88,1732.32 248.40,1729.27"/>
    </edge>
    <edge id=":J0_19" function="internal">
        <lane id=":J0_19_0" index="0" disallow="pedestrian" speed="6.35" length="17.06" shape="267.51,1726.62 263.66,1730.38 259.11,1732.53 255.70,1732.36 255.26,1729.16"/>
    </edge>
    <edge id=":J0_20" function="internal">
        <lane id=":J0_20_0" index="0" disallow="pedestrian" speed="5.89" length="14.40" shape="267.51,1726.62 264.44,1729.04 260.02,1730.68 256.29,1730.92 255.26,1729.16"/>
    </edge>
    <edge id=":J0_21" function="internal">
        <lane id=":J0_21_0" index="0" disallow="pedestrian" speed="3.88" length="5.57" shape="267.51,1726.62 262.32,1728.63"/>
    </edge>
    <edge id=":J0_22" function="internal">
        <lane id=":J0_22_0" index="0" disallow="pedestrian" speed="5.79" length="13.81" shape="259.71,1725.92 258.22,1731.06 258.16,1733.22 259.52,1732.41 262.32,1728.63"/>
    </edge>
    <edge id=":J0_23" function="internal">
        <lane id=":J0_23_0" index="0" disallow="pedestrian" speed="5.79" length="13.81" shape="259.71,1725.92 258.22,1731.06 258.16,1733.22 259.52,1732.41 262.32,1728.63"/>
    </edge>
    <edge id=":J0_24" function="internal">
        <lane id=":J0_24_0" index="0" disallow="pedestrian" speed="7.47" length="22.59" shape="259.71,1725.92 258.03,1732.90 259.04,1735.68 262.73,1734.25 269.10,1728.63"/>
    </edge>
    <edge id=":J0_25" function="internal">
        <lane id=":J0_25_0" index="0" disallow="pedestrian" speed="7.47" length="22.59" shape="259.71,1725.92 258.03,1732.90 259.04,1735.68 262.73,1734.25 269.10,1728.63"/>
    </edge>
    <edge id=":J0_26" function="internal">
        <lane id=":J0_26_0" index="0" disallow="pedestrian" speed="8.99" length="27.34" shape="259.71,1725.92 255.66,1731.15 248.87,1734.72 241.73,1735.60 236.60,1732.78"/>
    </edge>
    <edge id=":J0_27" function="internal">
        <lane id=":J0_27_0" index="0" disallow="pedestrian" speed="8.99" length="27.34" shape="259.71,1725.92 255.66,1731.15 248.87,1734.72 241.73,1735.60 236.60,1732.78"/>
    </edge>
    <edge id=":J0_28" function="internal">
        <lane id=":J0_28_0" index="0" disallow="pedestrian" speed="7.55" length="21.37" shape="259.71,1725.92 256.33,1729.82 250.64,1732.24 244.95,1732.46 241.57,1729.77"/>
    </edge>
    <edge id=":J0_29" function="internal">
        <lane id=":J0_29_0" index="0" disallow="pedestrian" speed="7.55" length="21.37" shape="259.71,1725.92 256.33,1729.82 250.64,1732.24 244.95,1732.46 241.57,1729.77"/>
    </edge>
    <edge id=":J0_30" function="internal">
        <lane id=":J0_30_0" index="0" disallow="pedestrian" speed="6.26" length="16.19" shape="259.71,1725.92 257.07,1729.99 253.28,1732.38 249.88,1732.39 248.40,1729.27"/>
    </edge>
    <edge id=":J0_31" function="internal">
        <lane id=":J0_31_0" index="0" disallow="pedestrian" speed="5.82" length="13.71" shape="259.71,1725.92 257.42,1728.57 253.59,1730.47 249.99,1730.93 248.40,1729.27"/>
    </edge>
    <edge id=":J0_32" function="internal">
        <lane id=":J0_32_0" index="0" disallow="pedestrian" speed="3.86" length="5.51" shape="259.71,1725.92 255.26,1729.16"/>
    </edge>
    <edge id=":J0_33" function="internal">
        <lane id=":J0_33_0" index="0" disallow="pedestrian" speed="5.46" length="11.83" shape="251.60,1729.22 251.83,1733.31 252.51,1734.67 253.66,1733.28 255.26,1729.16"/>
    </edge>
    <edge id=":J0_34" function="internal">
        <lane id=":J0_34_0" index="0" disallow="pedestrian" speed="5.46" length="11.83" shape="251.60,1729.22 251.83,1733.31 252.51,1734.67 253.66,1733.28 255.26,1729.16"/>
    </edge>
    <edge id=":J0_35" function="internal">
        <lane id=":J0_35_0" index="0" disallow="pedestrian" speed="7.27" length="20.16" shape="251.60,1729.22 252.27,1734.99 254.28,1736.82 257.63,1734.70 262.32,1728.63"/>
    </edge>
    <edge id=":J0_36" function="internal">
        <lane id=":J0_36_0" index="0" disallow="pedestrian" speed="7.27" length="20.16" shape="251.60,1729.22 252.27,1734.99 254.28,1736.82 257.63,1734.70 262.32,1728.63"/>
    </edge>
    <edge id=":J0_37" function="internal">
        <lane id=":J0_37_0" index="0" disallow="pedestrian" speed="8.57" length="26.29" shape="251.60,1729.22 252.69,1735.53 255.98,1737.53 261.45,1735.23 269.10,1728.63"/>
    </edge>
    <edge id=":J0_38" function="internal">
        <lane id=":J0_38_0" index="0" disallow="pedestrian" speed="8.57" length="26.29" shape="251.60,1729.22 252.69,1735.53 255.98,1737.53 261.45,1735.23 269.10,1728.63"/>
    </edge>
    <edge id=":J0_39" function="internal">
        <lane id=":J0_39_0" index="0" disallow="pedestrian" speed="6.87" length="17.85" shape="251.60,1729.22 249.66,1732.55 245.17,1734.53 240.14,1734.75 236.60,1732.78"/>
    </edge>
    <edge id=":J0_40" function="internal">
        <lane id=":J0_40_0" index="0" disallow="pedestrian" speed="6.87" length="17.85" shape="251.60,1729.22 249.66,1732.55 245.17,1734.53 240.14,1734.75 236.60,1732.78"/>
    </edge>
    <edge id=":J0_41" function="internal">
        <lane id=":J0_41_0" index="0" disallow="pedestrian" speed="5.86" length="13.91" shape="251.60,1729.22 250.28,1732.41 247.25,1733.57 243.88,1732.70 241.57,1729.77"/>
    </edge>
    <edge id=":J0_42" function="internal">
        <lane id=":J0_42_0" index="0" disallow="pedestrian" speed="5.45" length="11.78" shape="251.60,1729.22 250.18,1731.17 246.98,1731.94 243.58,1731.49 241.57,1729.77"/>
    </edge>
    <edge id=":J0_43" function="internal">
        <lane id=":J0_43_0" index="0" disallow="pedestrian" speed="3.24" length="3.20" shape="251.60,1729.22 248.40,1729.27"/>
    </edge>
    <edge id=":J0_44" function="internal">
        <lane id=":J0_44_0" index="0" disallow="pedestrian" speed="5.44" length="11.71" shape="244.80,1729.33 246.37,1733.38 247.50,1734.72 248.17,1733.35 248.40,1729.27"/>
    </edge>
    <edge id=":J0_45" function="internal">
        <lane id=":J0_45_0" index="0" disallow="pedestrian" speed="5.44" length="11.71" shape="244.80,1729.33 246.37,1733.38 247.50,1734.72 248.17,1733.35 248.40,1729.27"/>
    </edge>
    <edge id=":J0_46" function="internal">
        <lane id=":J0_46_0" index="0" disallow="pedestrian" speed="7.22" length="19.42" shape="244.80,1729.33 247.40,1735.17 250.01,1737.09 252.63,1735.09 255.26,1729.16"/>
    </edge>
    <edge id=":J0_47" function="internal">
        <lane id=":J0_47_0" index="0" disallow="pedestrian" speed="7.22" length="19.42" shape="244.80,1729.33 247.40,1735.17 250.01,1737.09 252.63,1735.09 255.26,1729.16"/>
    </edge>
    <edge id=":J0_48" function="internal">
        <lane id=":J0_48_0" index="0" disallow="pedestrian" speed="8.71" length="25.61" shape="244.80,1729.33 248.02,1735.68 252.02,1737.69 256.79,1735.33 262.32,1728.63"/>
    </edge>
    <edge id=":J0_49" function="internal">
        <lane id=":J0_49_0" index="0" disallow="pedestrian" speed="8.71" length="25.61" shape="244.80,1729.33 248.02,1735.68 252.02,1737.69 256.79,1735.33 262.32,1728.63"/>
    </edge>
    <edge id=":J0_50" function="internal">
        <lane id=":J0_50_0" index="0" disallow="pedestrian" speed="10.10" length="31.46" shape="244.80,1729.33 248.53,1735.93 253.82,1738.01 260.68,1735.58 269.10,1728.63"/>
    </edge>
    <edge id=":J0_51" function="internal">
        <lane id=":J0_51_0" index="0" disallow="pedestrian" speed="10.10" length="31.46" shape="244.80,1729.33 248.53,1735.93 253.82,1738.01 260.68,1735.58 269.10,1728.63"/>
    </edge>
    <edge id=":J0_52" function="internal">
        <lane id=":J0_52_0" index="0" disallow="pedestrian" speed="5.52" length="12.38" shape="244.80,1729.33 244.56,1732.42 242.31,1734.35 239.25,1734.63 236.60,1732.78"/>
    </edge>
    <edge id=":J0_53" function="internal">
        <lane id=":J0_53_0" index="0" disallow="pedestrian" speed="5.14" length="10.46" shape="244.80,1729.33 244.14,1731.40 241.66,1733.03 238.70,1733.68 236.60,1732.78"/>
    </edge>
    <edge id=":J0_54" function="internal">
        <lane id=":J0_54_0" index="0" disallow="pedestrian" speed="3.26" length="3.26" shape="244.80,1729.33 241.57,1729.77"/>
    </edge>
    <edge id=":J0_55" function="internal">
        <lane id=":J0_55_0" index="0" disallow="pedestrian" speed="5.19" length="0.47" shape="238.75,1730.24 239.02,1730.62"/>
    </edge>
    <edge id=":J0_56" function="internal">
        <lane id=":J0_56_0" index="0" disallow="pedestrian" speed="5.19" length="0.35" shape="238.75,1730.24 238.95,1730.52"/>
    </edge>
    <edge id=":J0_57" function="internal">
        <lane id=":J0_57_0" index="0" disallow="pedestrian" speed="7.06" length="14.90" shape="238.75,1730.24 242.97,1735.61 245.99,1737.23 247.80,1735.12 247.99,1733.27"/>
    </edge>
    <edge id=":J0_58" function="internal">
        <lane id=":J0_58_0" index="0" disallow="pedestrian" speed="7.06" length="14.91" shape="238.75,1730.24 242.97,1735.61 245.99,1737.23 247.80,1735.12 247.99,1733.26"/>
    </edge>
    <edge id=":J0_59" function="internal">
        <lane id=":J0_59_0" index="0" disallow="pedestrian" speed="8.51" length="20.36" shape="238.75,1730.24 243.82,1736.23 248.26,1738.05 252.07,1735.69 253.49,1732.79"/>
    </edge>
    <edge id=":J0_60" function="internal">
        <lane id=":J0_60_0" index="0" disallow="pedestrian" speed="8.51" length="20.36" shape="238.75,1730.24 243.82,1736.23 248.26,1738.05 252.07,1735.69 253.49,1732.79"/>
    </edge>
    <edge id=":J0_61" function="internal">
        <lane id=":J0_61_0" index="0" disallow="pedestrian" speed="10.12" length="26.32" shape="238.75,1730.24 244.44,1736.47 250.27,1738.28 256.23,1735.66 259.68,1731.68"/>
    </edge>
    <edge id=":J0_62" function="internal">
        <lane id=":J0_62_0" index="0" disallow="pedestrian" speed="10.12" length="26.32" shape="238.75,1730.24 244.44,1736.47 250.27,1738.28 256.23,1735.66 259.68,1731.68"/>
    </edge>
    <edge id=":J0_63" function="internal">
        <lane id=":J0_63_0" index="0" disallow="pedestrian" speed="11.69" length="32.20" shape="238.75,1730.24 244.96,1736.61 252.09,1738.46 260.14,1735.80 265.96,1731.15"/>
    </edge>
    <edge id=":J0_64" function="internal">
        <lane id=":J0_64_0" index="0" disallow="pedestrian" speed="11.69" length="32.09" shape="238.75,1730.24 244.96,1736.61 252.09,1738.46 260.14,1735.80 265.88,1731.21"/>
    </edge>
    <edge id=":J0_65" function="internal">
        <lane id=":J0_65_0" index="0" disallow="pedestrian" speed="3.28" length="1.82" shape="238.75,1730.24 237.57,1731.63"/>
    </edge>
    <edge id=":J0_73" function="internal">
        <lane id=":J0_73_0" index="0" disallow="pedestrian" speed="5.19" length="10.24" shape="239.02,1730.62 241.16,1733.56 242.43,1734.59 242.57,1733.32 241.57,1729.77"/>
    </edge>
    <edge id=":J0_74" function="internal">
        <lane id=":J0_74_0" index="0" disallow="pedestrian" speed="5.19" length="10.36" shape="238.95,1730.52 241.16,1733.56 242.43,1734.59 242.57,1733.32 241.57,1729.77"/>
    </edge>
    <edge id=":J0_75" function="internal">
        <lane id=":J0_75_0" index="0" disallow="pedestrian" speed="7.06" length="4.02" shape="247.99,1733.27 248.40,1729.27"/>
    </edge>
    <edge id=":J0_76" function="internal">
        <lane id=":J0_76_0" index="0" disallow="pedestrian" speed="7.06" length="4.01" shape="247.99,1733.26 248.40,1729.27"/>
    </edge>
    <edge id=":J0_77" function="internal">
        <lane id=":J0_77_0" index="0" disallow="pedestrian" speed="8.51" length="4.04" shape="253.49,1732.79 255.26,1729.16"/>
    </edge>
    <edge id=":J0_78" function="internal">
        <lane id=":J0_78_0" index="0" disallow="pedestrian" speed="8.51" length="4.04" shape="253.49,1732.79 255.26,1729.16"/>
    </edge>
    <edge id=":J0_79" function="internal">
        <lane id=":J0_79_0" index="0" disallow="pedestrian" speed="10.12" length="4.03" shape="259.68,1731.68 262.32,1728.63"/>
    </edge>
    <edge id=":J0_80" function="internal">
        <lane id=":J0_80_0" index="0" disallow="pedestrian" speed="10.12" length="4.03" shape="259.68,1731.68 262.32,1728.63"/>
    </edge>
    <edge id=":J0_81" function="internal">
        <lane id=":J0_81_0" index="0" disallow="pedestrian" speed="11.69" length="4.02" shape="265.96,1731.15 269.10,1728.63"/>
    </edge>
    <edge id=":J0_82" function="internal">
        <lane id=":J0_82_0" index="0" disallow="pedestrian" speed="11.69" length="4.13" shape="265.88,1731.21 269.10,1728.63"/>
    </edge>
    <edge id=":J0_83" function="internal">
        <lane id=":J0_83_0" index="0" disallow="pedestrian" speed="3.28" length="1.51" shape="237.57,1731.63 236.60,1732.78"/>
    </edge>
    <edge id=":J0_c0" function="crossing" crossingEdges="-E2320">
        <lane id=":J0_c0_0" index="0" allow="pedestrian" speed="1.00" length="3.20" width="4.00" shape="266.56,1728.92 268.82,1731.18"/>
    </edge>
    <edge id=":J0_c1" function="crossing" crossingEdges="E69">
        <lane id=":J0_c1_0" index="0" allow="pedestrian" speed="1.00" length="3.20" width="4.00" shape="265.07,1727.39 267.73,1729.17"/>
    </edge>
    <edge id=":J0_c2" function="crossing" crossingEdges="-E69">
        <lane id=":J0_c2_0" index="0" allow="pedestrian" speed="1.00" length="3.20" width="4.00" shape="259.88,1729.41 262.54,1731.18"/>
    </edge>
    <edge id=":J0_c3" function="crossing" crossingEdges="-E690">
        <lane id=":J0_c3_0" index="0" allow="pedestrian" speed="1.00" length="3.20" width="4.00" shape="259.88,1729.41 262.54,1731.18"/>
    </edge>
    <edge id=":J0_c4" function="crossing" crossingEdges="E14">
        <lane id=":J0_c4_0" index="0" allow="pedestrian" speed="1.00" length="3.20" width="4.00" shape="257.56,1727.31 260.60,1728.32"/>
    </edge>
    <edge id=":J0_c5" function="crossing" crossingEdges="-E14">
        <lane id=":J0_c5_0" index="0" allow="pedestrian" speed="1.00" length="3.20" width="4.00" shape="253.11,1730.56 256.14,1731.57"/>
    </edge>
    <edge id=":J0_c6" function="crossing" crossingEdges="-E1410">
        <lane id=":J0_c6_0" index="0" allow="pedestrian" speed="1.00" length="3.20" width="4.00" shape="253.11,1730.56 256.14,1731.57"/>
    </edge>
    <edge id=":J0_c7" function="crossing" crossingEdges="-E13 E13">
        <lane id=":J0_c7_0" index="0" allow="pedestrian" speed="1.00" length="6.40" width="4.00" shape="246.80,1731.27 253.20,1731.22"/>
    </edge>
    <edge id=":J0_c8" function="crossing" crossingEdges="-E1310">
        <lane id=":J0_c8_0" index="0" allow="pedestrian" speed="1.00" length="3.20" width="4.00" shape="246.80,1731.27 250.00,1731.27"/>
    </edge>
    <edge id=":J0_c9" function="crossing" crossingEdges="-E7 E7">
        <lane id=":J0_c9_0" index="0" allow="pedestrian" speed="1.00" length="6.43" width="4.00" shape="240.68,1732.17 246.95,1730.72"/>
    </edge>
    <edge id=":J0_c10" function="crossing" crossingEdges="-E710">
        <lane id=":J0_c10_0" index="0" allow="pedestrian" speed="1.00" length="3.20" width="4.00" shape="240.68,1732.17 243.72,1731.16"/>
    </edge>
    <edge id=":J0_c11" function="crossing" crossingEdges="-E1 E1">
        <lane id=":J0_c11_0" index="0" allow="pedestrian" speed="1.00" length="6.47" width="4.00" shape="236.37,1735.33 241.19,1731.01"/>
    </edge>
    <edge id=":J0_c12" function="crossing" crossingEdges="-E159">
        <lane id=":J0_c12_0" index="0" allow="pedestrian" speed="1.00" length="3.20" width="4.00" shape="236.37,1735.33 239.04,1733.56"/>
    </edge>
    <edge id=":J0_c13" function="crossing" crossingEdges="-E232 E232">
        <lane id=":J0_c13_0" index="0" allow="pedestrian" speed="1.00" length="6.42" width="4.00" shape="266.56,1728.92 270.69,1733.83"/>
    </edge>
    <edge id=":J0_w0" function="walkingarea">
        <lane id=":J0_w0_0" index="0" allow="pedestrian" speed="1.00" length="2.21" width="4.00" shape="267.97,1727.50 266.77,1725.87 266.34,1726.85 266.58,1727.95 267.28,1728.96 268.23,1729.67 269.22,1729.86 270.04,1729.32 270.04,1729.32 268.37,1728.21 268.84,1727.50 269.30,1726.78 269.52,1726.34 269.50,1726.19 269.23,1726.34 268.72,1726.77"/>
    </edge>
    <edge id=":J0_w1" function="walkingarea">
        <lane id=":J0_w1_0" index="0" allow="pedestrian" speed="1.00" length="3.63" width="4.00" shape="258.77,1731.07 260.99,1727.74 261.31,1727.27 259.65,1726.16 263.65,1729.52 261.43,1732.85"/>
    </edge>
    <edge id=":J0_w2" function="walkingarea">
        <lane id=":J0_w2_0" index="0" allow="pedestrian" speed="1.00" length="1.84" width="4.00" shape="260.99,1727.74 259.65,1726.16 259.47,1726.99 259.84,1727.82 260.56,1728.51 261.41,1728.92 262.19,1728.92 262.70,1728.35 262.70,1728.35 260.80,1727.72 261.23,1726.42 261.05,1726.99 260.92,1727.42 260.85,1727.71 260.84,1727.86 260.89,1727.87"/>
    </edge>
    <edge id=":J0_w3" function="walkingarea">
        <lane id=":J0_w3_0" index="0" allow="pedestrian" speed="1.00" length="3.01" width="4.00" shape="252.48,1732.45 253.74,1728.66 253.45,1729.52 251.56,1728.89 256.78,1729.67 255.51,1733.46"/>
    </edge>
    <edge id=":J0_w4" function="walkingarea">
        <lane id=":J0_w4_0" index="0" allow="pedestrian" speed="1.00" length="1.67" width="4.00" shape="253.74,1728.66 251.56,1728.89 251.62,1729.64 252.24,1730.14 253.16,1730.37 254.13,1730.30 254.89,1729.91 255.20,1729.18 255.20,1729.18 253.20,1729.18 253.22,1729.50 253.26,1729.63 253.34,1729.61 253.44,1729.44 253.58,1729.12"/>
    </edge>
    <edge id=":J0_w5" function="walkingarea">
        <lane id=":J0_w5_0" index="0" allow="pedestrian" speed="1.00" length="3.34" width="4.00" shape="246.82,1733.27 246.80,1729.31 244.80,1729.31 250.00,1729.27 250.00,1733.27"/>
    </edge>
    <edge id=":J0_w6" function="walkingarea">
        <lane id=":J0_w6_0" index="0" allow="pedestrian" speed="1.00" length="1.66" width="4.00" shape="246.80,1729.31 244.80,1729.31 245.11,1730.05 245.88,1730.43 246.85,1730.49 247.78,1730.24 248.40,1729.73 248.47,1728.97 246.57,1729.60 246.49,1728.77 246.46,1729.24 246.58,1729.52 246.68,1729.66 246.75,1729.67 246.79,1729.54"/>
    </edge>
    <edge id=":J0_w7" function="walkingarea">
        <lane id=":J0_w7_0" index="0" allow="pedestrian" speed="1.00" length="3.55" width="4.00" shape="241.13,1734.12 240.23,1730.22 239.92,1729.88 238.02,1730.52 243.09,1729.26 244.35,1733.05"/>
    </edge>
    <edge id=":J0_w8" function="walkingarea">
        <lane id=":J0_w8_0" index="0" allow="pedestrian" speed="1.00" length="2.12" width="4.00" shape="240.05,1730.27 238.02,1730.52 238.69,1731.30 239.76,1731.56 240.95,1731.39 241.98,1730.87 242.56,1730.12 242.39,1729.21 242.39,1729.21 240.73,1730.32 239.85,1729.52 239.89,1729.10 239.78,1729.00 239.74,1729.08 239.77,1729.31 239.87,1729.71"/>
    </edge>
    <edge id=":J0_w9" function="walkingarea">
        <lane id=":J0_w9_0" index="0" allow="pedestrian" speed="1.00" length="3.36" width="4.00" shape="237.71,1736.82 235.04,1733.84 235.27,1733.67 233.60,1734.78 237.93,1731.89 240.15,1735.22"/>
    </edge>
    <edge id=":J0_w10" function="walkingarea">
        <lane id=":J0_w10_0" index="0" allow="pedestrian" speed="1.00" length="24.71" width="4.00" shape="235.27,1733.67 233.60,1734.78 237.95,1738.13 244.71,1739.94 252.73,1740.34 260.87,1739.46 268.01,1737.42 273.00,1734.36 271.58,1732.94 272.22,1732.55 267.54,1735.21 260.86,1737.18 253.18,1738.17 245.61,1738.03 239.27,1736.58"/>
    </edge>
    <edge id=":J0_w11" function="walkingarea">
        <lane id=":J0_w11_0" index="0" allow="pedestrian" speed="1.00" length="3.50" width="4.00" shape="265.03,1730.20 268.09,1727.63 268.19,1727.29 266.77,1725.87 270.24,1729.76 267.41,1732.59"/>
    </edge>
    <edge id=":J0_w12" function="walkingarea">
        <lane id=":J0_w12_0" index="0" allow="pedestrian" speed="1.00" length="4.56" width="4.00" shape="261.43,1732.85 263.65,1729.52 266.18,1725.73 263.96,1729.06"/>
    </edge>
    <edge id=":J0_w13" function="walkingarea">
        <lane id=":J0_w13_0" index="0" allow="pedestrian" speed="1.00" length="4.49" width="4.00" shape="255.51,1733.46 256.78,1729.67 258.20,1725.41 256.93,1729.20"/>
    </edge>
    <edge id=":J1_0" function="internal">
        <lane id=":J1_0_0" index="0" disallow="pedestrian" speed="13.89" length="77.76" shape="898.98,1716.92 884.26,1732.21 869.18,1735.21 853.08,1727.98 835.32,1712.58"/>
    </edge>
    <edge id=":J1_1" function="internal">
        <lane id=":J1_1_0" index="0" disallow="pedestrian" speed="13.89" length="21.59" shape="898.98,1716.92 885.39,1729.88 882.59,1730.08"/>
    </edge>
    <edge id=":J1_2" function="internal">
        <lane id=":J1_2_0" index="0" disallow="pedestrian" speed="12.05" length="14.18" shape="898.98,1716.92 888.90,1726.54 888.66,1726.59"/>
    </edge>
    <edge id=":J1_3" function="internal">
        <lane id=":J1_3_0" index="0" disallow="pedestrian" speed="9.34" length="10.38" shape="898.98,1716.92 891.65,1723.76 891.31,1723.86"/>
    </edge>
    <edge id=":J1_4" function="internal">
        <lane id=":J1_4_0" index="0" disallow="pedestrian" speed="6.74" length="3.45" shape="898.98,1716.92 896.13,1718.85"/>
    </edge>
    <edge id=":J1_30" function="internal">
        <lane id=":J1_30_0" index="0" disallow="pedestrian" speed="13.89" length="49.51" shape="882.59,1730.08 871.20,1730.88 857.02,1722.05 843.43,1705.53"/>
    </edge>
    <edge id=":J1_31" function="internal">
        <lane id=":J1_31_0" index="0" disallow="pedestrian" speed="12.05" length="36.22" shape="888.66,1726.59 877.85,1728.72 867.76,1723.71 860.57,1711.77"/>
    </edge>
    <edge id=":J1_32" function="internal">
        <lane id=":J1_32_0" index="0" disallow="pedestrian" speed="9.34" length="24.10" shape="891.31,1723.86 883.23,1726.21 876.29,1723.77 873.40,1715.96"/>
    </edge>
    <edge id=":J1_33" function="internal">
        <lane id=":J1_33_0" index="0" disallow="pedestrian" speed="6.74" length="16.05" shape="896.13,1718.85 894.85,1719.72 890.14,1719.04 886.71,1715.75 886.39,1710.76"/>
    </edge>
    <edge id=":J1_5" function="internal">
        <lane id=":J1_5_0" index="0" disallow="pedestrian" speed="8.21" length="29.93" shape="889.43,1711.77 886.43,1722.26 886.58,1726.31 889.88,1723.94 896.32,1715.14"/>
    </edge>
    <edge id=":J1_6" function="internal">
        <lane id=":J1_6_0" index="0" disallow="pedestrian" speed="13.89" length="68.50" shape="889.43,1711.77 879.95,1726.92 866.78,1730.84 851.41,1725.44 835.32,1712.58"/>
    </edge>
    <edge id=":J1_7" function="internal">
        <lane id=":J1_7_0" index="0" disallow="pedestrian" speed="13.14" length="60.27" shape="889.43,1711.77 880.81,1724.14 868.74,1725.87 855.51,1719.00 843.43,1705.53"/>
    </edge>
    <edge id=":J1_8" function="internal">
        <lane id=":J1_8_0" index="0" disallow="pedestrian" speed="9.98" length="38.75" shape="889.43,1711.77 883.49,1720.33 875.00,1723.18 866.51,1720.33 860.57,1711.77"/>
    </edge>
    <edge id=":J1_9" function="internal">
        <lane id=":J1_9_0" index="0" disallow="pedestrian" speed="7.30" length="22.76" shape="889.43,1711.77 885.70,1717.40 880.32,1720.59 875.50,1720.41 873.40,1715.96"/>
    </edge>
    <edge id=":J1_10" function="internal">
        <lane id=":J1_10_0" index="0" disallow="pedestrian" speed="8.20" length="29.21" shape="876.60,1715.96 877.21,1724.70 879.05,1726.75 882.11,1722.10 886.39,1710.76"/>
    </edge>
    <edge id=":J1_11" function="internal">