<?xml version="1.0" encoding="UTF-8"?>

<!-- generated on 2022-09-18 11:33:40 by Eclipse SUMO netedit Version 1.14.1
<configuration xmlns:xsi="http://www.w3.org/2001/XMLSchema-instance" xsi:noNamespaceSchemaLocation="http://sumo.dlr.de/xsd/netconvertConfiguration.xsd">

    <input>
        <sumo-net-file value="/home/frederic/Desktop/Sumo%20Project%201/2x2.net.xml"/>
    </input>

    <output>
        <output-file value="/home/frederic/Desktop/Sumo%20Project%201/2x2/network.net.xml"/>
    </output>

    <processing>
        <geometry.min-radius.fix.railways value="false"/>
        <geometry.max-grade.fix value="false"/>
        <offset.disable-normalization value="true"/>
        <lefthand value="false"/>
    </processing>

    <junctions>
        <no-turnarounds value="true"/>
        <junctions.corner-detail value="5"/>
        <junctions.limit-turn-speed value="5.5"/>
        <rectangular-lane-cut value="false"/>
    </junctions>

    <pedestrian>
        <walkingareas value="false"/>
    </pedestrian>

    <netedit>
        <route-files value="/home/frederic/Desktop/Sumo%20Project%201/2x2/sn.rou.xml"/>
    </netedit>

</configuration>
-->

<net version="1.9" junctionCornerDetail="5" limitTurnSpeed="5.50" xmlns:xsi="http://www.w3.org/2001/XMLSchema-instance" xsi:noNamespaceSchemaLocation="http://sumo.dlr.de/xsd/net_file.xsd">

    <location netOffset="0.00,0.00" convBoundary="-125.00,-125.00,250.00,250.00" origBoundary="-10000000000.00,-10000000000.00,10000000000.00,10000000000.00" projParameter="!"/>

    <edge id=":J3_0" function="internal">
        <lane id=":J3_0_0" index="0" speed="13.89" length="14.40" shape="-1.60,132.20 -1.60,117.80"/>
    </edge>
    <edge id=":J3_1" function="internal">
        <lane id=":J3_1_0" index="0" speed="13.89" length="14.40" shape="7.20,126.60 -7.20,126.60"/>
    </edge>
    <edge id=":J3_2" function="internal">
        <lane id=":J3_2_0" index="0" speed="13.89" length="14.40" shape="1.60,117.80 1.60,132.20"/>
    </edge>
    <edge id=":J3_3" function="internal">
        <lane id=":J3_3_0" index="0" speed="13.89" length="14.40" shape="-7.20,123.40 7.20,123.40"/>
    </edge>
    <edge id=":J4_0" function="internal">
        <lane id=":J4_0_0" index="0" speed="13.89" length="14.40" shape="123.40,132.20 123.40,117.80"/>
    </edge>
    <edge id=":J4_1" function="internal">
        <lane id=":J4_1_0" index="0" speed="13.89" length="14.40" shape="132.20,126.60 117.80,126.60"/>
    </edge>
    <edge id=":J4_2" function="internal">
        <lane id=":J4_2_0" index="0" speed="13.89" length="14.40" shape="126.60,117.80 126.60,132.20"/>
    </edge>
    <edge id=":J4_3" function="internal">
        <lane id=":J4_3_0" index="0" speed="13.89" length="14.40" shape="117.80,123.40 132.20,123.40"/>
    </edge>
    <edge id=":J7_0" function="internal">
        <lane id=":J7_0_0" index="0" speed="13.89" length="14.40" shape="-1.60,7.20 -1.60,-7.20"/>
    </edge>
    <edge id=":J7_1" function="internal">
        <lane id=":J7_1_0" index="0" speed="13.89" length="14.40" shape="7.20,1.60 -7.20,1.60"/>
    </edge>
    <edge id=":J7_2" function="internal">
        <lane id=":J7_2_0" index="0" speed="13.89" length="14.40" shape="1.60,-7.20 1.60,7.20"/>
    </edge>
    <edge id=":J7_3" function="internal">
        <lane id=":J7_3_0" index="0" speed="13.89" length="14.40" shape="-7.20,-1.60 7.20,-1.60"/>
    </edge>
    <edge id=":J8_0" function="internal">
        <lane id=":J8_0_0" index="0" speed="13.89" length="14.40" shape="123.40,7.20 123.40,-7.20"/>
    </edge>
    <edge id=":J8_1" function="internal">
        <lane id=":J8_1_0" index="0" speed="13.89" length="14.40" shape="132.20,1.60 117.80,1.60"/>
    </edge>
    <edge id=":J8_2" function="internal">
        <lane id=":J8_2_0" index="0" speed="13.89" length="14.40" shape="126.60,-7.20 126.60,7.20"/>
    </edge>
    <edge id=":J8_3" function="internal">
        <lane id=":J8_3_0" index="0" speed="13.89" length="14.40" shape="117.80,-1.60 132.20,-1.60"/>
    </edge>

    <edge id="-E1" from="J3" to="J2" priority="-1">
        <lane id="-E1_0" index="0" speed="13.89" length="117.80" shape="-7.20,126.60 -125.00,126.60"/>
    </edge>
    <edge id="-E10" from="J8" to="J12" priority="-1">
        <lane id="-E10_0" index="0" speed="13.89" length="117.80" shape="123.40,-7.20 123.40,-125.00"/>
    </edge>
    <edge id="-E11" from="J4" to="J8" priority="-1">
        <lane id="-E11_0" index="0" speed="13.89" length="110.60" shape="123.40,117.80 123.40,7.20"/>
    </edge>
    <edge id="-E12" from="J13" to="J4" priority="-1">
        <lane id="-E12_0" index="0" speed="13.89" length="117.80" shape="123.40,250.00 123.40,132.20"/>
    </edge>
    <edge id="-E2" from="J4" to="J3" priority="-1">
        <lane id="-E2_0" index="0" speed="13.89" length="110.60" shape="117.80,126.60 7.20,126.60"/>
    </edge>
    <edge id="-E3" from="J5" to="J4" priority="-1">
        <lane id="-E3_0" index="0" speed="13.89" length="117.80" shape="250.00,126.60 132.20,126.60"/>
    </edge>
    <edge id="-E4" from="J7" to="J6" priority="-1">
        <lane id="-E4_0" index="0" speed="13.89" length="117.80" shape="-7.20,1.60 -125.00,1.60"/>
    </edge>
    <edge id="-E5" from="J8" to="J7" priority="-1">
        <lane id="-E5_0" index="0" speed="13.89" length="110.60" shape="117.80,1.60 7.20,1.60"/>
    </edge>
    <edge id="-E6" from="J9" to="J8" priority="-1">
        <lane id="-E6_0" index="0" speed="13.89" length="117.80" shape="250.00,1.60 132.20,1.60"/>
    </edge>
    <edge id="-E7" from="J7" to="J10" priority="-1">
        <lane id="-E7_0" index="0" speed="13.89" length="117.80" shape="-1.60,-7.20 -1.60,-125.00"/>
    </edge>
    <edge id="-E8" from="J3" to="J7" priority="-1">
        <lane id="-E8_0" index="0" speed="13.89" length="110.60" shape="-1.60,117.80 -1.60,7.20"/>
    </edge>
    <edge id="-E9" from="J11" to="J3" priority="-1">
        <lane id="-E9_0" index="0" speed="13.89" length="117.80" shape="-1.60,250.00 -1.60,132.20"/>
    </edge>
    <edge id="E1" from="J2" to="J3" priority="-1">
        <lane id="E1_0" index="0" speed="13.89" length="117.80" shape="-125.00,123.40 -7.20,123.40"/>
    </edge>
    <edge id="E10" from="J12" to="J8" priority="-1">
        <lane id="E10_0" index="0" speed="13.89" length="117.80" shape="126.60,-125.00 126.60,-7.20"/>
    </edge>
    <edge id="E11" from="J8" to="J4" priority="-1">
        <lane id="E11_0" index="0" speed="13.89" length="110.60" shape="126.60,7.20 126.60,117.80"/>
    </edge>
    <edge id="E12" from="J4" to="J13" priority="-1">
        <lane id="E12_0" index="0" speed="13.89" length="117.80" shape="126.60,132.20 126.60,250.00"/>
    </edge>
    <edge id="E2" from="J3" to="J4" priority="-1">
        <lane id="E2_0" index="0" speed="13.89" length="110.60" shape="7.20,123.40 117.80,123.40"/>
    </edge>
    <edge id="E3" from="J4" to="J5" priority="-1">
        <lane id="E3_0" index="0" speed="13.89" length="117.80" shape="132.20,123.40 250.00,123.40"/>
    </edge>
    <edge id="E4" from="J6" to="J7" priority="-1">
        <lane id="E4_0" index="0" speed="13.89" length="117.80" shape="-125.00,-1.60 -7.20,-1.60"/>
    </edge>
    <edge id="E5" from="J7" to="J8" priority="-1">
        <lane id="E5_0" index="0" speed="13.89" length="110.60" shape="7.20,-1.60 117.80,-1.60"/>
    </edge>
    <edge id="E6" from="J8" to="J9" priority="-1">
        <lane id="E6_0" index="0" speed="13.89" length="117.80" shape="132.20,-1.60 250.00,-1.60"/>
    </edge>
    <edge id="E7" from="J10" to="J7" priority="-1">
        <lane id="E7_0" index="0" speed="13.89" length="117.80" shape="1.60,-125.00 1.60,-7.20"/>
    </edge>
    <edge id="E8" from="J7" to="J3" priority="-1">
        <lane id="E8_0" index="0" speed="13.89" length="110.60" shape="1.60,7.20 1.60,117.80"/>
    </edge>
    <edge id="E9" from="J3" to="J11" priority="-1">
        <lane id="E9_0" index="0" speed="13.89" length="117.80" shape="1.60,132.20 1.60,250.00"/>
    </edge>

    <tlLogic id="J3" type="static" programID="0" offset="0">
        <phase duration="42" state="GrGr"/>
        <phase duration="3"  state="yryr"/>
        <phase duration="42" state="rGrG"/>
        <phase duration="3"  state="ryry"/>
    </tlLogic>
    <tlLogic id="J4" type="static" programID="0" offset="0">
        <phase duration="42" state="GrGr"/>
        <phase duration="3"  state="yryr"/>
        <phase duration="42" state="rGrG"/>
        <phase duration="3"  state="ryry"/>
    </tlLogic>
    <tlLogic id="J7" type="static" programID="0" offset="0">
        <phase duration="42" state="GrGr"/>
        <phase duration="3"  state="yryr"/>
        <phase duration="42" state="rGrG"/>
        <phase duration="3"  state="ryry"/>
    </tlLogic>
    <tlLogic id="J8" type="static" programID="0" offset="0">
        <phase duration="42" state="GrGr"/>
        <phase duration="3"  state="yryr"/>
        <phase duration="42" state="rGrG"/>
        <phase duration="3"  state="ryry"/>
    </tlLogic>

    <junction id="J10" type="dead_end" x="0.00" y="-125.00" incLanes="-E7_0" intLanes="" shape="0.00,-125.00 -3.20,-125.00 0.00,-125.00"/>
    <junction id="J11" type="dead_end" x="0.00" y="250.00" incLanes="E9_0" intLanes="" shape="0.00,250.00 3.20,250.00 0.00,250.00"/>
    <junction id="J12" type="dead_end" x="125.00" y="-125.00" incLanes="-E10_0" intLanes="" shape="125.00,-125.00 121.80,-125.00 125.00,-125.00"/>
    <junction id="J13" type="dead_end" x="125.00" y="250.00" incLanes="E12_0" intLanes="" shape="125.00,250.00 128.20,250.00 125.00,250.00"/>
    <junction id="J2" type="dead_end" x="-125.00" y="125.00" incLanes="-E1_0" intLanes="" shape="-125.00,125.00 -125.00,128.20 -125.00,125.00"/>
    <junction id="J3" type="traffic_light" x="0.00" y="125.00" incLanes="-E9_0 -E2_0 E8_0 E1_0" intLanes=":J3_0_0 :J3_1_0 :J3_2_0 :J3_3_0" shape="-3.20,132.20 3.20,132.20 3.64,129.98 4.20,129.20 4.98,128.64 5.98,128.31 7.20,128.20 7.20,121.80 4.98,121.36 4.20,120.80 3.64,120.02 3.31,119.02 3.20,117.80 -3.20,117.80 -3.64,120.02 -4.20,120.80 -4.98,121.36 -5.98,121.69 -7.20,121.80 -7.20,128.20 -4.98,128.64 -4.20,129.20 -3.64,129.98 -3.31,130.98">
        <request index="0" response="0000" foes="1010" cont="0"/>
        <request index="1" response="0101" foes="0101" cont="0"/>
        <request index="2" response="0000" foes="1010" cont="0"/>
        <request index="3" response="0101" foes="0101" cont="0"/>
    </junction>
    <junction id="J4" type="traffic_light" x="125.00" y="125.00" incLanes="-E12_0 -E3_0 E11_0 E2_0" intLanes=":J4_0_0 :J4_1_0 :J4_2_0 :J4_3_0" shape="121.80,132.20 128.20,132.20 128.64,129.98 129.20,129.20 129.98,128.64 130.98,128.31 132.20,128.20 132.20,121.80 129.98,121.36 129.20,120.80 128.64,120.02 128.31,119.02 128.20,117.80 121.80,117.80 121.36,120.02 120.80,120.80 120.02,121.36 119.02,121.69 117.80,121.80 117.80,128.20 120.02,128.64 120.80,129.20 121.36,129.98 121.69,130.98">
        <request index="0" response="0000" foes="1010" cont="0"/>
        <request index="1" response="0101" foes="0101" cont="0"/>
        <request index="2" response="0000" foes="1010" cont="0"/>
        <request index="3" response="0101" foes="0101" cont="0"/>
    </junction>
    <junction id="J5" type="dead_end" x="250.00" y="125.00" incLanes="E3_0" intLanes="" shape="250.00,125.00 250.00,121.80 250.00,125.00"/>
    <junction id="J6" type="dead_end" x="-125.00" y="0.00" incLanes="-E4_0" intLanes="" shape="-125.00,0.00 -125.00,3.20 -125.00,0.00"/>
    <junction id="J7" type="traffic_light" x="0.00" y="0.00" incLanes="-E8_0 -E5_0 E7_0 E4_0" intLanes=":J7_0_0 :J7_1_0 :J7_2_0 :J7_3_0" shape="-3.20,7.20 3.20,7.20 3.64,4.98 4.20,4.20 4.98,3.64 5.98,3.31 7.20,3.20 7.20,-3.20 4.98,-3.64 4.20,-4.20 3.64,-4.98 3.31,-5.98 3.20,-7.20 -3.20,-7.20 -3.64,-4.98 -4.20,-4.20 -4.98,-3.64 -5.98,-3.31 -7.20,-3.20 -7.20,3.20 -4.98,3.64 -4.20,4.20 -3.64,4.98 -3.31,5.98">
        <request index="0" response="0000" foes="1010" cont="0"/>
        <request index="1" response="0101" foes="0101" cont="0"/>
        <request index="2" response="0000" foes="1010" cont="0"/>
        <request index="3" response="0101" foes="0101" cont="0"/>
    </junction>
    <junction id="J8" type="traffic_light" x="125.00" y="0.00" incLanes="-E11_0 -E6_0 E10_0 E5_0" intLanes=":J8_0_0 :J8_1_0 :J8_2_0 :J8_3_0" shape="121.80,7.20 128.20,7.20 128.64,4.98 129.20,4.20 129.98,3.64 130.98,3.31 132.20,3.20 132.20,-3.20 129.98,-3.64 129.20,-4.20 128.64,-4.98 128.31,-5.98 128.20,-7.20 121.80,-7.20 121.36,-4.98 120.80,-4.20 120.02,-3.64 119.02,-3.31 117.80,-3.20 117.80,3.20 120.02,3.64 120.80,4.20 121.36,4.98 121.69,5.98">
        <request index="0" response="0000" foes="1010" cont="0"/>
        <request index="1" response="0101" foes="0101" cont="0"/>
        <request index="2" response="0000" foes="1010" cont="0"/>
        <request index="3" response="0101" foes="0101" cont="0"/>
    </junction>
    <junction id="J9" type="dead_end" x="250.00" y="0.00" incLanes="E6_0" intLanes="" shape="250.00,0.00 250.00,-3.20 250.00,0.00"/>

    <connection from="-E11" to="-E10" fromLane="0" toLane="0" via=":J8_0_0" tl="J8" linkIndex="0" dir="s" state="O"/>
    <connection from="-E12" to="-E11" fromLane="0" toLane="0" via=":J4_0_0" tl="J4" linkIndex="0" dir="s" state="O"/>
    <connection from="-E2" to="-E1" fromLane="0" toLane="0" via=":J3_1_0" tl="J3" linkIndex="1" dir="s" state="o"/>
    <connection from="-E3" to="-E2" fromLane="0" toLane="0" via=":J4_1_0" tl="J4" linkIndex="1" dir="s" state="o"/>
    <connection from="-E5" to="-E4" fromLane="0" toLane="0" via=":J7_1_0" tl="J7" linkIndex="1" dir="s" state="o"/>
    <connection from="-E6" to="-E5" fromLane="0" toLane="0" via=":J8_1_0" tl="J8" linkIndex="1" dir="s" state="o"/>
    <connection from="-E8" to="-E7" fromLane="0" toLane="0" via=":J7_0_0" tl="J7" linkIndex="0" dir="s" state="O"/>
    <connection from="-E9" to="-E8" fromLane="0" toLane="0" via=":J3_0_0" tl="J3" linkIndex="0" dir="s" state="O"/>
    <connection from="E1" to="E2" fromLane="0" toLane="0" via=":J3_3_0" tl="J3" linkIndex="3" dir="s" state="o"/>
    <connection from="E10" to="E11" fromLane="0" toLane="0" via=":J8_2_0" tl="J8" linkIndex="2" dir="s" state="O"/>
    <connection from="E11" to="E12" fromLane="0" toLane="0" via=":J4_2_0" tl="J4" linkIndex="2" dir="s" state="O"/>
    <connection from="E2" to="E3" fromLane="0" toLane="0" via=":J4_3_0" tl="J4" linkIndex="3" dir="s" state="o"/>
    <connection from="E4" to="E5" fromLane="0" toLane="0" via=":J7_3_0" tl="J7" linkIndex="3" dir="s" state="o"/>
    <connection from="E5" to="E6" fromLane="0" toLane="0" via=":J8_3_0" tl="J8" linkIndex="3" dir="s" state="o"/>
    <connection from="E7" to="E8" fromLane="0" toLane="0" via=":J7_2_0" tl="J7" linkIndex="2" dir="s" state="O"/>
    <connection from="E8" to="E9" fromLane="0" toLane="0" via=":J3_2_0" tl="J3" linkIndex="2" dir="s" state="O"/>

    <connection from=":J3_0" to="-E8" fromLane="0" toLane="0" dir="s" state="M"/>
    <connection from=":J3_1" to="-E1" fromLane="0" toLane="0" dir="s" state="M"/>
    <connection from=":J3_2" to="E9" fromLane="0" toLane="0" dir="s" state="M"/>
    <connection from=":J3_3" to="E2" fromLane="0" toLane="0" dir="s" state="M"/>
    <connection from=":J4_0" to="-E11" fromLane="0" toLane="0" dir="s" state="M"/>
    <connection from=":J4_1" to="-E2" fromLane="0" toLane="0" dir="s" state="M"/>
    <connection from=":J4_2" to="E12" fromLane="0" toLane="0" dir="s" state="M"/>
    <connection from=":J4_3" to="E3" fromLane="0" toLane="0" dir="s" state="M"/>
    <connection from=":J7_0" to="-E7" fromLane="0" toLane="0" dir="s" state="M"/>
    <connection from=":J7_1" to="-E4" fromLane="0" toLane="0" dir="s" state="M"/>
    <connection from=":J7_2" to="E8" fromLane="0" toLane="0" dir="s" state="M"/>
    <connection from=":J7_3" to="E5" fromLane="0" toLane="0" dir="s" state="M"/>
    <connection from=":J8_0" to="-E10" fromLane="0" toLane="0" dir="s" state="M"/>
    <connection from=":J8_1" to="-E5" fromLane="0" toLane="0" dir="s" state="M"/>
    <connection from=":J8_2" to="E11" fromLane="0" toLane="0" dir="s" state="M"/>
    <connection from=":J8_3" to="E6" fromLane="0" toLane="0" dir="s" state="M"/>

</net>
