<?xml version="1.0" encoding="UTF-8"?>

<!-- generated on 2022-09-18 11:33:41 by Eclipse SUMO netedit Version 1.14.1
-->

<routes xmlns:xsi="http://www.w3.org/2001/XMLSchema-instance" xsi:noNamespaceSchemaLocation="http://sumo.dlr.de/xsd/routes_file.xsd">
    <!-- Routes -->
    <route id="r_0" edges="E7 E8 E9"/>
    <route id="r_1" edges="E10 E11 E12"/>
    <route id="r_2" edges="-E9 -E8 -E7"/>
    <route id="r_3" edges="-E12 -E11 -E10"/>
    <route id="r_4" edges="-E3 -E2 -E1"/>
    <route id="r_5" edges="E1 E2 E3"/>
    <route id="r_6" edges="E4 E5 E6"/>
    <route id="r_7" edges="-E6 -E5 -E4"/>
    <!-- Vehicles, persons and containers (sorted by depart) -->
    <flow id="f_0" begin="0.00" route="r_0" end="3600.00" period="exp(0.20)"/>
    <flow id="f_1" begin="0.00" route="r_1" end="3600.00" period="exp(0.20)"/>
    <flow id="f_2" begin="0.00" route="r_5" end="3600.00" period="exp(0.05)"/>
    <flow id="f_3" begin="0.00" route="r_4" end="3600.00" period="exp(0.05)"/>
    <flow id="f_4" begin="0.00" route="r_7" end="3600.00" period="exp(0.05)"/>
    <flow id="f_5" begin="0.00" route="r_6" end="3600.00" period="exp(0.05)"/>
    <flow id="f_6" begin="0.00" route="r_2" end="3600.00" period="exp(0.03)"/>
    <flow id="f_7" begin="0.00" route="r_3" end="3600.00" period="exp(0.03)"/>
</routes>
